**                          
** Calculix forward problem 
**                          
*NODE,NSET=NALL
1,  -8.50000000E+00,   1.00000000E+01,   5.00000000E-01
2,  -8.50000000E+00,   1.00000000E+01,  -5.00000000E-01
3,  -7.50000000E+00,   1.00000000E+01,   5.00000000E-01
4,  -7.50000000E+00,   1.00000000E+01,  -5.00000000E-01
5,  -8.00000000E+00,   1.06000000E+01,  -1.02551745E-10
6,  -6.50000000E+00,   1.00000000E+01,   5.00000000E-01
7,  -5.50000000E+00,   1.00000000E+01,   5.00000000E-01
8,  -7.00000000E+00,   1.06000000E+01,  -1.02551745E-10
9,  -6.50000000E+00,   1.00000000E+01,  -5.00000000E-01
10,  -6.00000000E+00,   1.06000000E+01,  -1.02551745E-10
11,  -5.50000000E+00,   1.00000000E+01,  -5.00000000E-01
12,  -5.00000000E+00,   1.06000000E+01,  -1.02551745E-10
13,  -4.50000000E+00,   1.00000000E+01,   5.00000000E-01
14,  -4.50000000E+00,   1.00000000E+01,  -5.00000000E-01
15,  -3.50000000E+00,   1.00000000E+01,   5.00000000E-01
16,  -2.50000000E+00,   1.00000000E+01,   5.00000000E-01
17,  -3.50000000E+00,   1.00000000E+01,  -5.00000000E-01
18,  -4.00000000E+00,   1.06000000E+01,  -1.02551745E-10
19,  -3.00000000E+00,   1.06000000E+01,  -1.02551745E-10
20,  -2.50000000E+00,   1.00000000E+01,  -5.00000000E-01
** ... 448 like lines cut
*ELEMENT,TYPE=B32R,ELSET=E0
1,1,119,2,
*ELEMENT,TYPE=B32R,ELSET=E1
2,3,120,4,
*ELEMENT,TYPE=B32R,ELSET=E2
3,8,121,5,
*ELEMENT,TYPE=B32R,ELSET=E3
4,7,122,6,
*ELEMENT,TYPE=B32R,ELSET=E4
5,9,123,10,
*ELEMENT,TYPE=B32R,ELSET=E5
6,11,124,12,
*ELEMENT,TYPE=B32R,ELSET=E6
7,13,125,14,
*ELEMENT,TYPE=B32R,ELSET=E7
8,16,126,15,
*ELEMENT,TYPE=B32R,ELSET=E8
9,17,127,18,
*ELEMENT,TYPE=B32R,ELSET=E9
10,20,128,19,
*ELEMENT,TYPE=B32R,ELSET=E10
11,21,129,22,
*ELEMENT,TYPE=B32R,ELSET=E11
12,23,130,24,
*ELEMENT,TYPE=B32R,ELSET=E12
13,25,131,26,
*ELEMENT,TYPE=B32R,ELSET=E13
14,27,132,28,
*ELEMENT,TYPE=B32R,ELSET=E14
15,29,133,30,
*ELEMENT,TYPE=B32R,ELSET=E15
16,31,134,32,
*ELEMENT,TYPE=B32R,ELSET=E16
17,33,135,34,
*ELEMENT,TYPE=B32R,ELSET=E17
18,35,136,36,
*ELEMENT,TYPE=B32R,ELSET=E18
19,37,137,38,
*ELEMENT,TYPE=B32R,ELSET=E19
20,39,138,40,
** ... 660 like lines cut
*ELSET,ELSET=EALL
1
2
3
4
5
6
7
8
9
10
11
12
13
14
15
16
17
18
19
20
** ... 330 like lines cut
*BOUNDARY
21, 1, 6
22, 1, 6
49, 1, 6
51, 1, 6
*MATERIAL,NAME=MAT0
*ELASTIC
  2.00000000E+11, 0.3
*DENSITY
  7.80000000E+03
*MATERIAL,NAME=MAT1
*ELASTIC
  2.00000000E+11, 0.3
*DENSITY
  7.80000000E+03
*MATERIAL,NAME=MAT2
*ELASTIC
  2.00000000E+11, 0.3
*DENSITY
  7.80000000E+03
*MATERIAL,NAME=MAT3
*ELASTIC
  2.00000000E+11, 0.3
*DENSITY
  7.80000000E+03
*MATERIAL,NAME=MAT4
*ELASTIC
  2.00000000E+11, 0.3
*DENSITY
  7.80000000E+03
*MATERIAL,NAME=MAT5
*ELASTIC
  2.00000000E+11, 0.3
*DENSITY
  7.80000000E+03
*MATERIAL,NAME=MAT6
*ELASTIC
  2.00000000E+11, 0.3
*DENSITY
  7.80000000E+03
*MATERIAL,NAME=MAT7
*ELASTIC
  2.00000000E+11, 0.3
*DENSITY
  7.80000000E+03
*MATERIAL,NAME=MAT8
*ELASTIC
  2.00000000E+11, 0.3
*DENSITY
  7.80000000E+03
*MATERIAL,NAME=MAT9
*ELASTIC
  2.00000000E+11, 0.3
*DENSITY
  7.80000000E+03
*MATERIAL,NAME=MAT10
*ELASTIC
  2.00000000E+11, 0.3
*DENSITY
  7.80000000E+03
*MATERIAL,NAME=MAT11
*ELASTIC
  2.00000000E+11, 0.3
*DENSITY
  7.80000000E+03
*MATERIAL,NAME=MAT12
*ELASTIC
  2.00000000E+11, 0.3
*DENSITY
  7.80000000E+03
*MATERIAL,NAME=MAT13
*ELASTIC
  2.00000000E+11, 0.3
*DENSITY
  7.80000000E+03
*MATERIAL,NAME=MAT14
*ELASTIC
  2.00000000E+11, 0.3
*DENSITY
  7.80000000E+03
*MATERIAL,NAME=MAT15
*ELASTIC
  2.00000000E+11, 0.3
*DENSITY
  7.80000000E+03
*MATERIAL,NAME=MAT16
*ELASTIC
  2.00000000E+11, 0.3
*DENSITY
  7.80000000E+03
*MATERIAL,NAME=MAT17
*ELASTIC
  2.00000000E+11, 0.3
*DENSITY
  7.80000000E+03
*MATERIAL,NAME=MAT18
*ELASTIC
  2.00000000E+11, 0.3
*DENSITY
  7.80000000E+03
*MATERIAL,NAME=MAT19
*ELASTIC
  2.00000000E+11, 0.3
*DENSITY
  7.80000000E+03
*MATERIAL,NAME=MAT20
*ELASTIC
  2.00000000E+11, 0.3
*DENSITY
  7.80000000E+03
*MATERIAL,NAME=MAT21
*ELASTIC
  2.00000000E+11, 0.3
*DENSITY
  7.80000000E+03
*MATERIAL,NAME=MAT22
*ELASTIC
  2.00000000E+11, 0.3
*DENSITY
  7.80000000E+03
*MATERIAL,NAME=MAT23
*ELASTIC
  2.00000000E+11, 0.3
*DENSITY
  7.80000000E+03
*MATERIAL,NAME=MAT24
*ELASTIC
  2.00000000E+11, 0.3
*DENSITY
  7.80000000E+03
*MATERIAL,NAME=MAT25
*ELASTIC
  2.00000000E+11, 0.3
*DENSITY
  7.80000000E+03
*MATERIAL,NAME=MAT26
*ELASTIC
  2.00000000E+11, 0.3
*DENSITY
  7.80000000E+03
*MATERIAL,NAME=MAT27
*ELASTIC
  2.00000000E+11, 0.3
*DENSITY
  7.80000000E+03
*MATERIAL,NAME=MAT28
*ELASTIC
  2.00000000E+11, 0.3
*DENSITY
  7.80000000E+03
*MATERIAL,NAME=MAT29
*ELASTIC
  2.00000000E+11, 0.3
*DENSITY
  7.80000000E+03
*MATERIAL,NAME=MAT30
*ELASTIC
  2.00000000E+11, 0.3
*DENSITY
  7.80000000E+03
*MATERIAL,NAME=MAT31
*ELASTIC
  2.00000000E+11, 0.3
*DENSITY
  7.80000000E+03
*MATERIAL,NAME=MAT32
*ELASTIC
  2.00000000E+11, 0.3
*DENSITY
  7.80000000E+03
*MATERIAL,NAME=MAT33
*ELASTIC
  2.00000000E+11, 0.3
*DENSITY
  7.80000000E+03
*MATERIAL,NAME=MAT34
*ELASTIC
  2.00000000E+11, 0.3
*DENSITY
  7.80000000E+03
*MATERIAL,NAME=MAT35
*ELASTIC
  2.00000000E+11, 0.3
*DENSITY
  7.80000000E+03
*MATERIAL,NAME=MAT36
*ELASTIC
  2.00000000E+11, 0.3
*DENSITY
  7.80000000E+03
*MATERIAL,NAME=MAT37
*ELASTIC
  2.00000000E+11, 0.3
*DENSITY
  7.80000000E+03
*MATERIAL,NAME=MAT38
*ELASTIC
  2.00000000E+11, 0.3
*DENSITY
  7.80000000E+03
*MATERIAL,NAME=MAT39
*ELASTIC
  2.00000000E+11, 0.3
*DENSITY
  7.80000000E+03
*MATERIAL,NAME=MAT40
*ELASTIC
  2.00000000E+11, 0.3
*DENSITY
  7.80000000E+03
*MATERIAL,NAME=MAT41
*ELASTIC
  2.00000000E+11, 0.3
*DENSITY
  7.80000000E+03
*MATERIAL,NAME=MAT42
*ELASTIC
  2.00000000E+11, 0.3
*DENSITY
  7.80000000E+03
*MATERIAL,NAME=MAT43
*ELASTIC
  2.00000000E+11, 0.3
*DENSITY
  7.80000000E+03
*MATERIAL,NAME=MAT44
*ELASTIC
  2.00000000E+11, 0.3
*DENSITY
  7.80000000E+03
*MATERIAL,NAME=MAT45
*ELASTIC
  2.00000000E+11, 0.3
*DENSITY
  7.80000000E+03
*MATERIAL,NAME=MAT46
*ELASTIC
  2.00000000E+11, 0.3
*DENSITY
  7.80000000E+03
*MATERIAL,NAME=MAT47
*ELASTIC
  2.00000000E+11, 0.3
*DENSITY
  7.80000000E+03
*MATERIAL,NAME=MAT48
*ELASTIC
  2.00000000E+11, 0.3
*DENSITY
  7.80000000E+03
*MATERIAL,NAME=MAT49
*ELASTIC
  2.00000000E+11, 0.3
*DENSITY
  7.80000000E+03
*MATERIAL,NAME=MAT50
*ELASTIC
  2.00000000E+11, 0.3
*DENSITY
  7.80000000E+03
*MATERIAL,NAME=MAT51
*ELASTIC
  2.00000000E+11, 0.3
*DENSITY
  7.80000000E+03
*MATERIAL,NAME=MAT52
*ELASTIC
  2.00000000E+11, 0.3
*DENSITY
  7.80000000E+03
*MATERIAL,NAME=MAT53
*ELASTIC
  2.00000000E+11, 0.3
*DENSITY
  7.80000000E+03
*MATERIAL,NAME=MAT54
*ELASTIC
  2.00000000E+11, 0.3
*DENSITY
  7.80000000E+03
*MATERIAL,NAME=MAT55
*ELASTIC
  2.00000000E+11, 0.3
*DENSITY
  7.80000000E+03
*MATERIAL,NAME=MAT56
*ELASTIC
  2.00000000E+11, 0.3
*DENSITY
  7.80000000E+03
*MATERIAL,NAME=MAT57
*ELASTIC
  2.00000000E+11, 0.3
*DENSITY
  7.80000000E+03
*MATERIAL,NAME=MAT58
*ELASTIC
  2.00000000E+11, 0.3
*DENSITY
  7.80000000E+03
*MATERIAL,NAME=MAT59
*ELASTIC
  2.00000000E+11, 0.3
*DENSITY
  7.80000000E+03
*MATERIAL,NAME=MAT60
*ELASTIC
  2.00000000E+11, 0.3
*DENSITY
  7.80000000E+03
*MATERIAL,NAME=MAT61
*ELASTIC
  2.00000000E+11, 0.3
*DENSITY
  7.80000000E+03
*MATERIAL,NAME=MAT62
*ELASTIC
  2.00000000E+11, 0.3
*DENSITY
  7.80000000E+03
*MATERIAL,NAME=MAT63
*ELASTIC
  2.00000000E+11, 0.3
*DENSITY
  7.80000000E+03
*MATERIAL,NAME=MAT64
*ELASTIC
  2.00000000E+11, 0.3
*DENSITY
  7.80000000E+03
*MATERIAL,NAME=MAT65
*ELASTIC
  2.00000000E+11, 0.3
*DENSITY
  7.80000000E+03
*MATERIAL,NAME=MAT66
*ELASTIC
  2.00000000E+11, 0.3
*DENSITY
  7.80000000E+03
*MATERIAL,NAME=MAT67
*ELASTIC
  2.00000000E+11, 0.3
*DENSITY
  7.80000000E+03
*MATERIAL,NAME=MAT68
*ELASTIC
  2.00000000E+11, 0.3
*DENSITY
  7.80000000E+03
*MATERIAL,NAME=MAT69
*ELASTIC
  2.00000000E+11, 0.3
*DENSITY
  7.80000000E+03
*MATERIAL,NAME=MAT70
*ELASTIC
  2.00000000E+11, 0.3
*DENSITY
  7.80000000E+03
*MATERIAL,NAME=MAT71
*ELASTIC
  2.00000000E+11, 0.3
*DENSITY
  7.80000000E+03
*MATERIAL,NAME=MAT72
*ELASTIC
  2.00000000E+11, 0.3
*DENSITY
  7.80000000E+03
*MATERIAL,NAME=MAT73
*ELASTIC
  2.00000000E+11, 0.3
*DENSITY
  7.80000000E+03
*MATERIAL,NAME=MAT74
*ELASTIC
  2.00000000E+11, 0.3
*DENSITY
  7.80000000E+03
*MATERIAL,NAME=MAT75
*ELASTIC
  2.00000000E+11, 0.3
*DENSITY
  7.80000000E+03
*MATERIAL,NAME=MAT76
*ELASTIC
  2.00000000E+11, 0.3
*DENSITY
  7.80000000E+03
*MATERIAL,NAME=MAT77
*ELASTIC
  2.00000000E+11, 0.3
*DENSITY
  7.80000000E+03
*MATERIAL,NAME=MAT78
*ELASTIC
  2.00000000E+11, 0.3
*DENSITY
  7.80000000E+03
*MATERIAL,NAME=MAT79
*ELASTIC
  2.00000000E+11, 0.3
*DENSITY
  7.80000000E+03
*MATERIAL,NAME=MAT80
*ELASTIC
  2.00000000E+11, 0.3
*DENSITY
  7.80000000E+03
*MATERIAL,NAME=MAT81
*ELASTIC
  2.00000000E+11, 0.3
*DENSITY
  7.80000000E+03
*MATERIAL,NAME=MAT82
*ELASTIC
  2.00000000E+11, 0.3
*DENSITY
  7.80000000E+03
*MATERIAL,NAME=MAT83
*ELASTIC
  2.00000000E+11, 0.3
*DENSITY
  7.80000000E+03
*MATERIAL,NAME=MAT84
*ELASTIC
  2.00000000E+11, 0.3
*DENSITY
  7.80000000E+03
*MATERIAL,NAME=MAT85
*ELASTIC
  2.00000000E+11, 0.3
*DENSITY
  7.80000000E+03
*MATERIAL,NAME=MAT86
*ELASTIC
  2.00000000E+11, 0.3
*DENSITY
  7.80000000E+03
*MATERIAL,NAME=MAT87
*ELASTIC
  2.00000000E+11, 0.3
*DENSITY
  7.80000000E+03
*MATERIAL,NAME=MAT88
*ELASTIC
  2.00000000E+11, 0.3
*DENSITY
  7.80000000E+03
*MATERIAL,NAME=MAT89
*ELASTIC
  2.00000000E+11, 0.3
*DENSITY
  7.80000000E+03
*MATERIAL,NAME=MAT90
*ELASTIC
  2.00000000E+11, 0.3
*DENSITY
  7.80000000E+03
*MATERIAL,NAME=MAT91
*ELASTIC
  2.00000000E+11, 0.3
*DENSITY
  7.80000000E+03
*MATERIAL,NAME=MAT92
*ELASTIC
  2.00000000E+11, 0.3
*DENSITY
  7.80000000E+03
*MATERIAL,NAME=MAT93
*ELASTIC
  2.00000000E+11, 0.3
*DENSITY
  7.80000000E+03
*MATERIAL,NAME=MAT94
*ELASTIC
  2.00000000E+11, 0.3
*DENSITY
  7.80000000E+03
*MATERIAL,NAME=MAT95
*ELASTIC
  2.00000000E+11, 0.3
*DENSITY
  7.80000000E+03
*MATERIAL,NAME=MAT96
*ELASTIC
  2.00000000E+11, 0.3
*DENSITY
  7.80000000E+03
*MATERIAL,NAME=MAT97
*ELASTIC
  2.00000000E+11, 0.3
*DENSITY
  7.80000000E+03
*MATERIAL,NAME=MAT98
*ELASTIC
  2.00000000E+11, 0.3
*DENSITY
  7.80000000E+03
*MATERIAL,NAME=MAT99
*ELASTIC
  2.00000000E+11, 0.3
*DENSITY
  7.80000000E+03
*MATERIAL,NAME=MAT100
*ELASTIC
  2.00000000E+11, 0.3
*DENSITY
  7.80000000E+03
*MATERIAL,NAME=MAT101
*ELASTIC
  2.00000000E+11, 0.3
*DENSITY
  7.80000000E+03
*MATERIAL,NAME=MAT102
*ELASTIC
  2.00000000E+11, 0.3
*DENSITY
  7.80000000E+03
*MATERIAL,NAME=MAT103
*ELASTIC
  2.00000000E+11, 0.3
*DENSITY
  7.80000000E+03
*MATERIAL,NAME=MAT104
*ELASTIC
  2.00000000E+11, 0.3
*DENSITY
  7.80000000E+03
*MATERIAL,NAME=MAT105
*ELASTIC
  2.00000000E+11, 0.3
*DENSITY
  7.80000000E+03
*MATERIAL,NAME=MAT106
*ELASTIC
  2.00000000E+11, 0.3
*DENSITY
  7.80000000E+03
*MATERIAL,NAME=MAT107
*ELASTIC
  2.00000000E+11, 0.3
*DENSITY
  7.80000000E+03
*MATERIAL,NAME=MAT108
*ELASTIC
  2.00000000E+11, 0.3
*DENSITY
  7.80000000E+03
*MATERIAL,NAME=MAT109
*ELASTIC
  2.00000000E+11, 0.3
*DENSITY
  7.80000000E+03
*MATERIAL,NAME=MAT110
*ELASTIC
  2.00000000E+11, 0.3
*DENSITY
  7.80000000E+03
*MATERIAL,NAME=MAT111
*ELASTIC
  2.00000000E+11, 0.3
*DENSITY
  7.80000000E+03
*MATERIAL,NAME=MAT112
*ELASTIC
  2.00000000E+11, 0.3
*DENSITY
  7.80000000E+03
*MATERIAL,NAME=MAT113
*ELASTIC
  2.00000000E+11, 0.3
*DENSITY
  7.80000000E+03
*MATERIAL,NAME=MAT114
*ELASTIC
  2.00000000E+11, 0.3
*DENSITY
  7.80000000E+03
*MATERIAL,NAME=MAT115
*ELASTIC
  2.00000000E+11, 0.3
*DENSITY
  7.80000000E+03
*MATERIAL,NAME=MAT116
*ELASTIC
  2.00000000E+11, 0.3
*DENSITY
  7.80000000E+03
*MATERIAL,NAME=MAT117
*ELASTIC
  2.00000000E+11, 0.3
*DENSITY
  7.80000000E+03
*MATERIAL,NAME=MAT118
*ELASTIC
  2.00000000E+11, 0.3
*DENSITY
  7.80000000E+03
*MATERIAL,NAME=MAT119
*ELASTIC
  2.00000000E+11, 0.3
*DENSITY
  7.80000000E+03
*MATERIAL,NAME=MAT120
*ELASTIC
  2.00000000E+11, 0.3
*DENSITY
  7.80000000E+03
*MATERIAL,NAME=MAT121
*ELASTIC
  2.00000000E+11, 0.3
*DENSITY
  7.80000000E+03
*MATERIAL,NAME=MAT122
*ELASTIC
  2.00000000E+11, 0.3
*DENSITY
  7.80000000E+03
*MATERIAL,NAME=MAT123
*ELASTIC
  2.00000000E+11, 0.3
*DENSITY
  7.80000000E+03
*MATERIAL,NAME=MAT124
*ELASTIC
  2.00000000E+11, 0.3
*DENSITY
  7.80000000E+03
*MATERIAL,NAME=MAT125
*ELASTIC
  2.00000000E+11, 0.3
*DENSITY
  7.80000000E+03
*MATERIAL,NAME=MAT126
*ELASTIC
  2.00000000E+11, 0.3
*DENSITY
  7.80000000E+03
*MATERIAL,NAME=MAT127
*ELASTIC
  2.00000000E+11, 0.3
*DENSITY
  7.80000000E+03
*MATERIAL,NAME=MAT128
*ELASTIC
  2.00000000E+11, 0.3
*DENSITY
  7.80000000E+03
*MATERIAL,NAME=MAT129
*ELASTIC
  2.00000000E+11, 0.3
*DENSITY
  7.80000000E+03
*MATERIAL,NAME=MAT130
*ELASTIC
  2.00000000E+11, 0.3
*DENSITY
  7.80000000E+03
*MATERIAL,NAME=MAT131
*ELASTIC
  2.00000000E+11, 0.3
*DENSITY
  7.80000000E+03
*MATERIAL,NAME=MAT132
*ELASTIC
  2.00000000E+11, 0.3
*DENSITY
  7.80000000E+03
*MATERIAL,NAME=MAT133
*ELASTIC
  2.00000000E+11, 0.3
*DENSITY
  7.80000000E+03
*MATERIAL,NAME=MAT134
*ELASTIC
  2.00000000E+11, 0.3
*DENSITY
  7.80000000E+03
*MATERIAL,NAME=MAT135
*ELASTIC
  2.00000000E+11, 0.3
*DENSITY
  7.80000000E+03
*MATERIAL,NAME=MAT136
*ELASTIC
  2.00000000E+11, 0.3
*DENSITY
  7.80000000E+03
*MATERIAL,NAME=MAT137
*ELASTIC
  2.00000000E+11, 0.3
*DENSITY
  7.80000000E+03
*MATERIAL,NAME=MAT138
*ELASTIC
  2.00000000E+11, 0.3
*DENSITY
  7.80000000E+03
*MATERIAL,NAME=MAT139
*ELASTIC
  2.00000000E+11, 0.3
*DENSITY
  7.80000000E+03
*MATERIAL,NAME=MAT140
*ELASTIC
  2.00000000E+11, 0.3
*DENSITY
  7.80000000E+03
*MATERIAL,NAME=MAT141
*ELASTIC
  2.00000000E+11, 0.3
*DENSITY
  7.80000000E+03
*MATERIAL,NAME=MAT142
*ELASTIC
  2.00000000E+11, 0.3
*DENSITY
  7.80000000E+03
*MATERIAL,NAME=MAT143
*ELASTIC
  2.00000000E+11, 0.3
*DENSITY
  7.80000000E+03
*MATERIAL,NAME=MAT144
*ELASTIC
  2.00000000E+11, 0.3
*DENSITY
  7.80000000E+03
*MATERIAL,NAME=MAT145
*ELASTIC
  2.00000000E+11, 0.3
*DENSITY
  7.80000000E+03
*MATERIAL,NAME=MAT146
*ELASTIC
  2.00000000E+11, 0.3
*DENSITY
  7.80000000E+03
*MATERIAL,NAME=MAT147
*ELASTIC
  2.00000000E+11, 0.3
*DENSITY
  7.80000000E+03
*MATERIAL,NAME=MAT148
*ELASTIC
  2.00000000E+11, 0.3
*DENSITY
  7.80000000E+03
*MATERIAL,NAME=MAT149
*ELASTIC
  2.00000000E+11, 0.3
*DENSITY
  7.80000000E+03
*MATERIAL,NAME=MAT150
*ELASTIC
  2.00000000E+11, 0.3
*DENSITY
  7.80000000E+03
*MATERIAL,NAME=MAT151
*ELASTIC
  2.00000000E+11, 0.3
*DENSITY
  7.80000000E+03
*MATERIAL,NAME=MAT152
*ELASTIC
  2.00000000E+11, 0.3
*DENSITY
  7.80000000E+03
*MATERIAL,NAME=MAT153
*ELASTIC
  2.00000000E+11, 0.3
*DENSITY
  7.80000000E+03
*MATERIAL,NAME=MAT154
*ELASTIC
  2.00000000E+11, 0.3
*DENSITY
  7.80000000E+03
*MATERIAL,NAME=MAT155
*ELASTIC
  2.00000000E+11, 0.3
*DENSITY
  7.80000000E+03
*MATERIAL,NAME=MAT156
*ELASTIC
  2.00000000E+11, 0.3
*DENSITY
  7.80000000E+03
*MATERIAL,NAME=MAT157
*ELASTIC
  2.00000000E+11, 0.3
*DENSITY
  7.80000000E+03
*MATERIAL,NAME=MAT158
*ELASTIC
  2.00000000E+11, 0.3
*DENSITY
  7.80000000E+03
*MATERIAL,NAME=MAT159
*ELASTIC
  2.00000000E+11, 0.3
*DENSITY
  7.80000000E+03
*MATERIAL,NAME=MAT160
*ELASTIC
  2.00000000E+11, 0.3
*DENSITY
  7.80000000E+03
*MATERIAL,NAME=MAT161
*ELASTIC
  2.00000000E+11, 0.3
*DENSITY
  7.80000000E+03
*MATERIAL,NAME=MAT162
*ELASTIC
  2.00000000E+11, 0.3
*DENSITY
  7.80000000E+03
*MATERIAL,NAME=MAT163
*ELASTIC
  2.00000000E+11, 0.3
*DENSITY
  7.80000000E+03
*MATERIAL,NAME=MAT164
*ELASTIC
  2.00000000E+11, 0.3
*DENSITY
  7.80000000E+03
*MATERIAL,NAME=MAT165
*ELASTIC
  2.00000000E+11, 0.3
*DENSITY
  7.80000000E+03
*MATERIAL,NAME=MAT166
*ELASTIC
  2.00000000E+11, 0.3
*DENSITY
  7.80000000E+03
*MATERIAL,NAME=MAT167
*ELASTIC
  2.00000000E+11, 0.3
*DENSITY
  7.80000000E+03
*MATERIAL,NAME=MAT168
*ELASTIC
  2.00000000E+11, 0.3
*DENSITY
  7.80000000E+03
*MATERIAL,NAME=MAT169
*ELASTIC
  2.00000000E+11, 0.3
*DENSITY
  7.80000000E+03
*MATERIAL,NAME=MAT170
*ELASTIC
  2.00000000E+11, 0.3
*DENSITY
  7.80000000E+03
*MATERIAL,NAME=MAT171
*ELASTIC
  2.00000000E+11, 0.3
*DENSITY
  7.80000000E+03
*MATERIAL,NAME=MAT172
*ELASTIC
  2.00000000E+11, 0.3
*DENSITY
  7.80000000E+03
*MATERIAL,NAME=MAT173
*ELASTIC
  2.00000000E+11, 0.3
*DENSITY
  7.80000000E+03
*MATERIAL,NAME=MAT174
*ELASTIC
  2.00000000E+11, 0.3
*DENSITY
  7.80000000E+03
*MATERIAL,NAME=MAT175
*ELASTIC
  2.00000000E+11, 0.3
*DENSITY
  7.80000000E+03
*MATERIAL,NAME=MAT176
*ELASTIC
  2.00000000E+11, 0.3
*DENSITY
  7.80000000E+03
*MATERIAL,NAME=MAT177
*ELASTIC
  2.00000000E+11, 0.3
*DENSITY
  7.80000000E+03
*MATERIAL,NAME=MAT178
*ELASTIC
  2.00000000E+11, 0.3
*DENSITY
  7.80000000E+03
*MATERIAL,NAME=MAT179
*ELASTIC
  2.00000000E+11, 0.3
*DENSITY
  7.80000000E+03
*MATERIAL,NAME=MAT180
*ELASTIC
  2.00000000E+11, 0.3
*DENSITY
  7.80000000E+03
*MATERIAL,NAME=MAT181
*ELASTIC
  2.00000000E+11, 0.3
*DENSITY
  7.80000000E+03
*MATERIAL,NAME=MAT182
*ELASTIC
  2.00000000E+11, 0.3
*DENSITY
  7.80000000E+03
*MATERIAL,NAME=MAT183
*ELASTIC
  2.00000000E+11, 0.3
*DENSITY
  7.80000000E+03
*MATERIAL,NAME=MAT184
*ELASTIC
  2.00000000E+11, 0.3
*DENSITY
  7.80000000E+03
*MATERIAL,NAME=MAT185
*ELASTIC
  2.00000000E+11, 0.3
*DENSITY
  7.80000000E+03
*MATERIAL,NAME=MAT186
*ELASTIC
  2.00000000E+11, 0.3
*DENSITY
  7.80000000E+03
*MATERIAL,NAME=MAT187
*ELASTIC
  2.00000000E+11, 0.3
*DENSITY
  7.80000000E+03
*MATERIAL,NAME=MAT188
*ELASTIC
  2.00000000E+11, 0.3
*DENSITY
  7.80000000E+03
*MATERIAL,NAME=MAT189
*ELASTIC
  2.00000000E+11, 0.3
*DENSITY
  7.80000000E+03
*MATERIAL,NAME=MAT190
*ELASTIC
  2.00000000E+11, 0.3
*DENSITY
  7.80000000E+03
*MATERIAL,NAME=MAT191
*ELASTIC
  2.00000000E+11, 0.3
*DENSITY
  7.80000000E+03
*MATERIAL,NAME=MAT192
*ELASTIC
  2.00000000E+11, 0.3
*DENSITY
  7.80000000E+03
*MATERIAL,NAME=MAT193
*ELASTIC
  2.00000000E+11, 0.3
*DENSITY
  7.80000000E+03
*MATERIAL,NAME=MAT194
*ELASTIC
  2.00000000E+11, 0.3
*DENSITY
  7.80000000E+03
*MATERIAL,NAME=MAT195
*ELASTIC
  2.00000000E+11, 0.3
*DENSITY
  7.80000000E+03
*MATERIAL,NAME=MAT196
*ELASTIC
  2.00000000E+11, 0.3
*DENSITY
  7.80000000E+03
*MATERIAL,NAME=MAT197
*ELASTIC
  2.00000000E+11, 0.3
*DENSITY
  7.80000000E+03
*MATERIAL,NAME=MAT198
*ELASTIC
  2.00000000E+11, 0.3
*DENSITY
  7.80000000E+03
*MATERIAL,NAME=MAT199
*ELASTIC
  2.00000000E+11, 0.3
*DENSITY
  7.80000000E+03
*MATERIAL,NAME=MAT200
*ELASTIC
  2.00000000E+11, 0.3
*DENSITY
  7.80000000E+03
*MATERIAL,NAME=MAT201
*ELASTIC
  2.00000000E+11, 0.3
*DENSITY
  7.80000000E+03
*MATERIAL,NAME=MAT202
*ELASTIC
  2.00000000E+11, 0.3
*DENSITY
  7.80000000E+03
*MATERIAL,NAME=MAT203
*ELASTIC
  2.00000000E+11, 0.3
*DENSITY
  7.80000000E+03
*MATERIAL,NAME=MAT204
*ELASTIC
  2.00000000E+11, 0.3
*DENSITY
  7.80000000E+03
*MATERIAL,NAME=MAT205
*ELASTIC
  2.00000000E+11, 0.3
*DENSITY
  7.80000000E+03
*MATERIAL,NAME=MAT206
*ELASTIC
  2.00000000E+11, 0.3
*DENSITY
  7.80000000E+03
*MATERIAL,NAME=MAT207
*ELASTIC
  2.00000000E+11, 0.3
*DENSITY
  7.80000000E+03
*MATERIAL,NAME=MAT208
*ELASTIC
  2.00000000E+11, 0.3
*DENSITY
  7.80000000E+03
*MATERIAL,NAME=MAT209
*ELASTIC
  2.00000000E+11, 0.3
*DENSITY
  7.80000000E+03
*MATERIAL,NAME=MAT210
*ELASTIC
  2.00000000E+11, 0.3
*DENSITY
  7.80000000E+03
*MATERIAL,NAME=MAT211
*ELASTIC
  2.00000000E+11, 0.3
*DENSITY
  7.80000000E+03
*MATERIAL,NAME=MAT212
*ELASTIC
  2.00000000E+11, 0.3
*DENSITY
  7.80000000E+03
*MATERIAL,NAME=MAT213
*ELASTIC
  2.00000000E+11, 0.3
*DENSITY
  7.80000000E+03
*MATERIAL,NAME=MAT214
*ELASTIC
  2.00000000E+11, 0.3
*DENSITY
  7.80000000E+03
*MATERIAL,NAME=MAT215
*ELASTIC
  2.00000000E+11, 0.3
*DENSITY
  7.80000000E+03
*MATERIAL,NAME=MAT216
*ELASTIC
  2.00000000E+11, 0.3
*DENSITY
  7.80000000E+03
*MATERIAL,NAME=MAT217
*ELASTIC
  2.00000000E+11, 0.3
*DENSITY
  7.80000000E+03
*MATERIAL,NAME=MAT218
*ELASTIC
  2.00000000E+11, 0.3
*DENSITY
  7.80000000E+03
*MATERIAL,NAME=MAT219
*ELASTIC
  2.00000000E+11, 0.3
*DENSITY
  7.80000000E+03
*MATERIAL,NAME=MAT220
*ELASTIC
  2.00000000E+11, 0.3
*DENSITY
  7.80000000E+03
*MATERIAL,NAME=MAT221
*ELASTIC
  2.00000000E+11, 0.3
*DENSITY
  7.80000000E+03
*MATERIAL,NAME=MAT222
*ELASTIC
  2.00000000E+11, 0.3
*DENSITY
  7.80000000E+03
*MATERIAL,NAME=MAT223
*ELASTIC
  2.00000000E+11, 0.3
*DENSITY
  7.80000000E+03
*MATERIAL,NAME=MAT224
*ELASTIC
  2.00000000E+11, 0.3
*DENSITY
  7.80000000E+03
*MATERIAL,NAME=MAT225
*ELASTIC
  2.00000000E+11, 0.3
*DENSITY
  7.80000000E+03
*MATERIAL,NAME=MAT226
*ELASTIC
  2.00000000E+11, 0.3
*DENSITY
  7.80000000E+03
*MATERIAL,NAME=MAT227
*ELASTIC
  2.00000000E+11, 0.3
*DENSITY
  7.80000000E+03
*MATERIAL,NAME=MAT228
*ELASTIC
  2.00000000E+11, 0.3
*DENSITY
  7.80000000E+03
*MATERIAL,NAME=MAT229
*ELASTIC
  2.00000000E+11, 0.3
*DENSITY
  7.80000000E+03
*MATERIAL,NAME=MAT230
*ELASTIC
  2.00000000E+11, 0.3
*DENSITY
  7.80000000E+03
*MATERIAL,NAME=MAT231
*ELASTIC
  2.00000000E+11, 0.3
*DENSITY
  7.80000000E+03
*MATERIAL,NAME=MAT232
*ELASTIC
  2.00000000E+11, 0.3
*DENSITY
  7.80000000E+03
*MATERIAL,NAME=MAT233
*ELASTIC
  2.00000000E+11, 0.3
*DENSITY
  7.80000000E+03
*MATERIAL,NAME=MAT234
*ELASTIC
  2.00000000E+11, 0.3
*DENSITY
  7.80000000E+03
*MATERIAL,NAME=MAT235
*ELASTIC
  2.00000000E+11, 0.3
*DENSITY
  7.80000000E+03
*MATERIAL,NAME=MAT236
*ELASTIC
  2.00000000E+11, 0.3
*DENSITY
  7.80000000E+03
*MATERIAL,NAME=MAT237
*ELASTIC
  2.00000000E+11, 0.3
*DENSITY
  7.80000000E+03
*MATERIAL,NAME=MAT238
*ELASTIC
  2.00000000E+11, 0.3
*DENSITY
  7.80000000E+03
*MATERIAL,NAME=MAT239
*ELASTIC
  2.00000000E+11, 0.3
*DENSITY
  7.80000000E+03
*MATERIAL,NAME=MAT240
*ELASTIC
  2.00000000E+11, 0.3
*DENSITY
  7.80000000E+03
*MATERIAL,NAME=MAT241
*ELASTIC
  2.00000000E+11, 0.3
*DENSITY
  7.80000000E+03
*MATERIAL,NAME=MAT242
*ELASTIC
  2.00000000E+11, 0.3
*DENSITY
  7.80000000E+03
*MATERIAL,NAME=MAT243
*ELASTIC
  2.00000000E+11, 0.3
*DENSITY
  7.80000000E+03
*MATERIAL,NAME=MAT244
*ELASTIC
  2.00000000E+11, 0.3
*DENSITY
  7.80000000E+03
*MATERIAL,NAME=MAT245
*ELASTIC
  2.00000000E+11, 0.3
*DENSITY
  7.80000000E+03
*MATERIAL,NAME=MAT246
*ELASTIC
  2.00000000E+11, 0.3
*DENSITY
  7.80000000E+03
*MATERIAL,NAME=MAT247
*ELASTIC
  2.00000000E+11, 0.3
*DENSITY
  7.80000000E+03
*MATERIAL,NAME=MAT248
*ELASTIC
  2.00000000E+11, 0.3
*DENSITY
  7.80000000E+03
*MATERIAL,NAME=MAT249
*ELASTIC
  2.00000000E+11, 0.3
*DENSITY
  7.80000000E+03
*MATERIAL,NAME=MAT250
*ELASTIC
  2.00000000E+11, 0.3
*DENSITY
  7.80000000E+03
*MATERIAL,NAME=MAT251
*ELASTIC
  2.00000000E+11, 0.3
*DENSITY
  7.80000000E+03
*MATERIAL,NAME=MAT252
*ELASTIC
  2.00000000E+11, 0.3
*DENSITY
  7.80000000E+03
*MATERIAL,NAME=MAT253
*ELASTIC
  2.00000000E+11, 0.3
*DENSITY
  7.80000000E+03
*MATERIAL,NAME=MAT254
*ELASTIC
  2.00000000E+11, 0.3
*DENSITY
  7.80000000E+03
*MATERIAL,NAME=MAT255
*ELASTIC
  2.00000000E+11, 0.3
*DENSITY
  7.80000000E+03
*MATERIAL,NAME=MAT256
*ELASTIC
  2.00000000E+11, 0.3
*DENSITY
  7.80000000E+03
*MATERIAL,NAME=MAT257
*ELASTIC
  2.00000000E+11, 0.3
*DENSITY
  7.80000000E+03
*MATERIAL,NAME=MAT258
*ELASTIC
  2.00000000E+11, 0.3
*DENSITY
  7.80000000E+03
*MATERIAL,NAME=MAT259
*ELASTIC
  2.00000000E+11, 0.3
*DENSITY
  7.80000000E+03
*MATERIAL,NAME=MAT260
*ELASTIC
  2.00000000E+11, 0.3
*DENSITY
  7.80000000E+03
*MATERIAL,NAME=MAT261
*ELASTIC
  2.00000000E+11, 0.3
*DENSITY
  7.80000000E+03
*MATERIAL,NAME=MAT262
*ELASTIC
  2.00000000E+11, 0.3
*DENSITY
  7.80000000E+03
*MATERIAL,NAME=MAT263
*ELASTIC
  2.00000000E+11, 0.3
*DENSITY
  7.80000000E+03
*MATERIAL,NAME=MAT264
*ELASTIC
  2.00000000E+11, 0.3
*DENSITY
  7.80000000E+03
*MATERIAL,NAME=MAT265
*ELASTIC
  2.00000000E+11, 0.3
*DENSITY
  7.80000000E+03
*MATERIAL,NAME=MAT266
*ELASTIC
  2.00000000E+11, 0.3
*DENSITY
  7.80000000E+03
*MATERIAL,NAME=MAT267
*ELASTIC
  2.00000000E+11, 0.3
*DENSITY
  7.80000000E+03
*MATERIAL,NAME=MAT268
*ELASTIC
  2.00000000E+11, 0.3
*DENSITY
  7.80000000E+03
*MATERIAL,NAME=MAT269
*ELASTIC
  2.00000000E+11, 0.3
*DENSITY
  7.80000000E+03
*MATERIAL,NAME=MAT270
*ELASTIC
  2.00000000E+11, 0.3
*DENSITY
  7.80000000E+03
*MATERIAL,NAME=MAT271
*ELASTIC
  2.00000000E+11, 0.3
*DENSITY
  7.80000000E+03
*MATERIAL,NAME=MAT272
*ELASTIC
  2.00000000E+11, 0.3
*DENSITY
  7.80000000E+03
*MATERIAL,NAME=MAT273
*ELASTIC
  2.00000000E+11, 0.3
*DENSITY
  7.80000000E+03
*MATERIAL,NAME=MAT274
*ELASTIC
  2.00000000E+11, 0.3
*DENSITY
  7.80000000E+03
*MATERIAL,NAME=MAT275
*ELASTIC
  2.00000000E+11, 0.3
*DENSITY
  7.80000000E+03
*MATERIAL,NAME=MAT276
*ELASTIC
  2.00000000E+11, 0.3
*DENSITY
  7.80000000E+03
*MATERIAL,NAME=MAT277
*ELASTIC
  2.00000000E+11, 0.3
*DENSITY
  7.80000000E+03
*MATERIAL,NAME=MAT278
*ELASTIC
  2.00000000E+11, 0.3
*DENSITY
  7.80000000E+03
*MATERIAL,NAME=MAT279
*ELASTIC
  2.00000000E+11, 0.3
*DENSITY
  7.80000000E+03
*MATERIAL,NAME=MAT280
*ELASTIC
  2.00000000E+11, 0.3
*DENSITY
  7.80000000E+03
*MATERIAL,NAME=MAT281
*ELASTIC
  2.00000000E+11, 0.3
*DENSITY
  7.80000000E+03
*MATERIAL,NAME=MAT282
*ELASTIC
  2.00000000E+11, 0.3
*DENSITY
  7.80000000E+03
*MATERIAL,NAME=MAT283
*ELASTIC
  2.00000000E+11, 0.3
*DENSITY
  7.80000000E+03
*MATERIAL,NAME=MAT284
*ELASTIC
  2.00000000E+11, 0.3
*DENSITY
  7.80000000E+03
*MATERIAL,NAME=MAT285
*ELASTIC
  2.00000000E+11, 0.3
*DENSITY
  7.80000000E+03
*MATERIAL,NAME=MAT286
*ELASTIC
  2.00000000E+11, 0.3
*DENSITY
  7.80000000E+03
*MATERIAL,NAME=MAT287
*ELASTIC
  2.00000000E+11, 0.3
*DENSITY
  7.80000000E+03
*MATERIAL,NAME=MAT288
*ELASTIC
  2.00000000E+11, 0.3
*DENSITY
  7.80000000E+03
*MATERIAL,NAME=MAT289
*ELASTIC
  2.00000000E+11, 0.3
*DENSITY
  7.80000000E+03
*MATERIAL,NAME=MAT290
*ELASTIC
  2.00000000E+11, 0.3
*DENSITY
  7.80000000E+03
*MATERIAL,NAME=MAT291
*ELASTIC
  2.00000000E+11, 0.3
*DENSITY
  7.80000000E+03
*MATERIAL,NAME=MAT292
*ELASTIC
  2.00000000E+11, 0.3
*DENSITY
  7.80000000E+03
*MATERIAL,NAME=MAT293
*ELASTIC
  2.00000000E+11, 0.3
*DENSITY
  7.80000000E+03
*MATERIAL,NAME=MAT294
*ELASTIC
  2.00000000E+11, 0.3
*DENSITY
  7.80000000E+03
*MATERIAL,NAME=MAT295
*ELASTIC
  2.00000000E+11, 0.3
*DENSITY
  7.80000000E+03
*MATERIAL,NAME=MAT296
*ELASTIC
  2.00000000E+11, 0.3
*DENSITY
  7.80000000E+03
*MATERIAL,NAME=MAT297
*ELASTIC
  2.00000000E+11, 0.3
*DENSITY
  7.80000000E+03
*MATERIAL,NAME=MAT298
*ELASTIC
  2.00000000E+11, 0.3
*DENSITY
  7.80000000E+03
*MATERIAL,NAME=MAT299
*ELASTIC
  2.00000000E+11, 0.3
*DENSITY
  7.80000000E+03
*MATERIAL,NAME=MAT300
*ELASTIC
  2.00000000E+11, 0.3
*DENSITY
  7.80000000E+03
*MATERIAL,NAME=MAT301
*ELASTIC
  2.00000000E+11, 0.3
*DENSITY
  7.80000000E+03
*MATERIAL,NAME=MAT302
*ELASTIC
  2.00000000E+11, 0.3
*DENSITY
  7.80000000E+03
*MATERIAL,NAME=MAT303
*ELASTIC
  2.00000000E+11, 0.3
*DENSITY
  7.80000000E+03
*MATERIAL,NAME=MAT304
*ELASTIC
  2.00000000E+11, 0.3
*DENSITY
  7.80000000E+03
*MATERIAL,NAME=MAT305
*ELASTIC
  2.00000000E+11, 0.3
*DENSITY
  7.80000000E+03
*MATERIAL,NAME=MAT306
*ELASTIC
  2.00000000E+11, 0.3
*DENSITY
  7.80000000E+03
*MATERIAL,NAME=MAT307
*ELASTIC
  2.00000000E+11, 0.3
*DENSITY
  7.80000000E+03
*MATERIAL,NAME=MAT308
*ELASTIC
  2.00000000E+11, 0.3
*DENSITY
  7.80000000E+03
*MATERIAL,NAME=MAT309
*ELASTIC
  2.00000000E+11, 0.3
*DENSITY
  7.80000000E+03
*MATERIAL,NAME=MAT310
*ELASTIC
  2.00000000E+11, 0.3
*DENSITY
  7.80000000E+03
*MATERIAL,NAME=MAT311
*ELASTIC
  2.00000000E+11, 0.3
*DENSITY
  7.80000000E+03
*MATERIAL,NAME=MAT312
*ELASTIC
  2.00000000E+11, 0.3
*DENSITY
  7.80000000E+03
*MATERIAL,NAME=MAT313
*ELASTIC
  2.00000000E+11, 0.3
*DENSITY
  7.80000000E+03
*MATERIAL,NAME=MAT314
*ELASTIC
  2.00000000E+11, 0.3
*DENSITY
  7.80000000E+03
*MATERIAL,NAME=MAT315
*ELASTIC
  2.00000000E+11, 0.3
*DENSITY
  7.80000000E+03
*MATERIAL,NAME=MAT316
*ELASTIC
  2.00000000E+11, 0.3
*DENSITY
  7.80000000E+03
*MATERIAL,NAME=MAT317
*ELASTIC
  2.00000000E+11, 0.3
*DENSITY
  7.80000000E+03
*MATERIAL,NAME=MAT318
*ELASTIC
  2.00000000E+11, 0.3
*DENSITY
  7.80000000E+03
*MATERIAL,NAME=MAT319
*ELASTIC
  2.00000000E+11, 0.3
*DENSITY
  7.80000000E+03
*MATERIAL,NAME=MAT320
*ELASTIC
  2.00000000E+11, 0.3
*DENSITY
  7.80000000E+03
*MATERIAL,NAME=MAT321
*ELASTIC
  2.00000000E+11, 0.3
*DENSITY
  7.80000000E+03
*MATERIAL,NAME=MAT322
*ELASTIC
  2.00000000E+11, 0.3
*DENSITY
  7.80000000E+03
*MATERIAL,NAME=MAT323
*ELASTIC
  2.00000000E+11, 0.3
*DENSITY
  7.80000000E+03
*MATERIAL,NAME=MAT324
*ELASTIC
  2.00000000E+11, 0.3
*DENSITY
  7.80000000E+03
*MATERIAL,NAME=MAT325
*ELASTIC
  2.00000000E+11, 0.3
*DENSITY
  7.80000000E+03
*MATERIAL,NAME=MAT326
*ELASTIC
  2.00000000E+11, 0.3
*DENSITY
  7.80000000E+03
*MATERIAL,NAME=MAT327
*ELASTIC
  2.00000000E+11, 0.3
*DENSITY
  7.80000000E+03
*MATERIAL,NAME=MAT328
*ELASTIC
  2.00000000E+11, 0.3
*DENSITY
  7.80000000E+03
*MATERIAL,NAME=MAT329
*ELASTIC
  2.00000000E+11, 0.3
*DENSITY
  7.80000000E+03
*MATERIAL,NAME=MAT330
*ELASTIC
  2.00000000E+11, 0.3
*DENSITY
  7.80000000E+03
*MATERIAL,NAME=MAT331
*ELASTIC
  2.00000000E+11, 0.3
*DENSITY
  7.80000000E+03
*MATERIAL,NAME=MAT332
*ELASTIC
  2.00000000E+11, 0.3
*DENSITY
  7.80000000E+03
*MATERIAL,NAME=MAT333
*ELASTIC
  2.00000000E+11, 0.3
*DENSITY
  7.80000000E+03
*MATERIAL,NAME=MAT334
*ELASTIC
  2.00000000E+11, 0.3
*DENSITY
  7.80000000E+03
*MATERIAL,NAME=MAT335
*ELASTIC
  2.00000000E+11, 0.3
*DENSITY
  7.80000000E+03
*MATERIAL,NAME=MAT336
*ELASTIC
  2.00000000E+11, 0.3
*DENSITY
  7.80000000E+03
*MATERIAL,NAME=MAT337
*ELASTIC
  2.00000000E+11, 0.3
*DENSITY
  7.80000000E+03
*MATERIAL,NAME=MAT338
*ELASTIC
  2.00000000E+11, 0.3
*DENSITY
  7.80000000E+03
*MATERIAL,NAME=MAT339
*ELASTIC
  2.00000000E+11, 0.3
*DENSITY
  7.80000000E+03
*MATERIAL,NAME=MAT340
*ELASTIC
  2.00000000E+11, 0.3
*DENSITY
  7.80000000E+03
*MATERIAL,NAME=MAT341
*ELASTIC
  2.00000000E+11, 0.3
*DENSITY
  7.80000000E+03
*MATERIAL,NAME=MAT342
*ELASTIC
  2.00000000E+11, 0.3
*DENSITY
  7.80000000E+03
*MATERIAL,NAME=MAT343
*ELASTIC
  2.00000000E+11, 0.3
*DENSITY
  7.80000000E+03
*MATERIAL,NAME=MAT344
*ELASTIC
  2.00000000E+11, 0.3
*DENSITY
  7.80000000E+03
*MATERIAL,NAME=MAT345
*ELASTIC
  2.00000000E+11, 0.3
*DENSITY
  7.80000000E+03
*MATERIAL,NAME=MAT346
*ELASTIC
  2.00000000E+11, 0.3
*DENSITY
  7.80000000E+03
*MATERIAL,NAME=MAT347
*ELASTIC
  2.00000000E+11, 0.3
*DENSITY
  7.80000000E+03
*MATERIAL,NAME=MAT348
*ELASTIC
  2.00000000E+11, 0.3
*DENSITY
  7.80000000E+03
*MATERIAL,NAME=MAT349
*ELASTIC
  2.00000000E+11, 0.3
*DENSITY
  7.80000000E+03
*BEAM SECTION,ELSET=E0,MATERIAL=MAT0,SECTION=RECT
  2.23600000E-01,   2.23600000E-01
 -1.00000000E+00,   0.00000000E+00,   0.00000000E+00
*BEAM SECTION,ELSET=E1,MATERIAL=MAT1,SECTION=RECT
  2.23600000E-01,   2.23600000E-01
 -1.00000000E+00,   0.00000000E+00,   0.00000000E+00
*BEAM SECTION,ELSET=E2,MATERIAL=MAT2,SECTION=RECT
  2.23600000E-01,   2.23600000E-01
  0.00000000E+00,   0.00000000E+00,   1.00000000E+00
*BEAM SECTION,ELSET=E3,MATERIAL=MAT3,SECTION=RECT
  2.23600000E-01,   2.23600000E-01
  0.00000000E+00,   0.00000000E+00,   1.00000000E+00
*BEAM SECTION,ELSET=E4,MATERIAL=MAT4,SECTION=RECT
  2.23600000E-01,   2.23600000E-01
 -7.07106781E-01,   0.00000000E+00,   7.07106781E-01
*BEAM SECTION,ELSET=E5,MATERIAL=MAT5,SECTION=RECT
  2.23600000E-01,   2.23600000E-01
 -7.07106781E-01,   0.00000000E+00,   7.07106781E-01
*BEAM SECTION,ELSET=E6,MATERIAL=MAT6,SECTION=RECT
  2.23600000E-01,   2.23600000E-01
 -1.00000000E+00,   0.00000000E+00,   0.00000000E+00
*BEAM SECTION,ELSET=E7,MATERIAL=MAT7,SECTION=RECT
  2.23600000E-01,   2.23600000E-01
  0.00000000E+00,   0.00000000E+00,   1.00000000E+00
*BEAM SECTION,ELSET=E8,MATERIAL=MAT8,SECTION=RECT
  2.23600000E-01,   2.23600000E-01
 -7.07106781E-01,   0.00000000E+00,  -7.07106781E-01
*BEAM SECTION,ELSET=E9,MATERIAL=MAT9,SECTION=RECT
  2.23600000E-01,   2.23600000E-01
 -7.07106781E-01,   0.00000000E+00,  -7.07106781E-01
*BEAM SECTION,ELSET=E10,MATERIAL=MAT10,SECTION=RECT
  2.23600000E-01,   2.23600000E-01
 -1.00000000E+00,   0.00000000E+00,   0.00000000E+00
*BEAM SECTION,ELSET=E11,MATERIAL=MAT11,SECTION=RECT
  2.23600000E-01,   2.23600000E-01
 -1.00000000E+00,   0.00000000E+00,   0.00000000E+00
*BEAM SECTION,ELSET=E12,MATERIAL=MAT12,SECTION=RECT
  2.23600000E-01,   2.23600000E-01
 -1.00000000E+00,   0.00000000E+00,   0.00000000E+00
*BEAM SECTION,ELSET=E13,MATERIAL=MAT13,SECTION=RECT
  2.23600000E-01,   2.23600000E-01
 -1.00000000E+00,   0.00000000E+00,   0.00000000E+00
*BEAM SECTION,ELSET=E14,MATERIAL=MAT14,SECTION=RECT
  2.23600000E-01,   2.23600000E-01
 -1.00000000E+00,   0.00000000E+00,   0.00000000E+00
*BEAM SECTION,ELSET=E15,MATERIAL=MAT15,SECTION=RECT
  2.23600000E-01,   2.23600000E-01
 -1.00000000E+00,   0.00000000E+00,   0.00000000E+00
*BEAM SECTION,ELSET=E16,MATERIAL=MAT16,SECTION=RECT
  2.23600000E-01,   2.23600000E-01
 -1.00000000E+00,   0.00000000E+00,   0.00000000E+00
*BEAM SECTION,ELSET=E17,MATERIAL=MAT17,SECTION=RECT
  2.23600000E-01,   2.23600000E-01
 -1.00000000E+00,   0.00000000E+00,   0.00000000E+00
*BEAM SECTION,ELSET=E18,MATERIAL=MAT18,SECTION=RECT
  2.23600000E-01,   2.23600000E-01
 -1.00000000E+00,   0.00000000E+00,   0.00000000E+00
*BEAM SECTION,ELSET=E19,MATERIAL=MAT19,SECTION=RECT
  2.23600000E-01,   2.23600000E-01
** ... 991 like lines cut
*NSET,NSET=LOAD2
3
*NSET,NSET=LOAD3
4
*NSET,NSET=LOAD107
108
*NSET,NSET=LOAD111
112
*STEP
*STATIC
*CLOAD
LOAD2, 1,   0.00000000E+00
LOAD2, 2,  -1.00000000E+06
LOAD2, 3,   0.00000000E+00
*CLOAD
LOAD3, 1,   0.00000000E+00
LOAD3, 2,   1.00000000E+06
LOAD3, 3,   0.00000000E+00
*CLOAD
LOAD107, 1,   0.00000000E+00
LOAD107, 2,  -1.00000000E+06
LOAD107, 3,   0.00000000E+00
*CLOAD
LOAD111, 1,   0.00000000E+00
LOAD111, 2,   1.00000000E+06
LOAD111, 3,   0.00000000E+00
*NODE PRINT,NSET=NAll
U
*NODE FILE,OUTPUT=3D
U
*END STEP
