**                          
** Calculix forward problem 
**                          
*NODE,NSET=NALL
1,   0.00000000E+00,   0.00000000E+00,   0.00000000E+00
2,   0.00000000E+00,   0.00000000E+00,   8.75000000E-01
3,   0.00000000E+00,   0.00000000E+00,   1.75000000E+00
4,   0.00000000E+00,   0.00000000E+00,   2.62500000E+00
5,   0.00000000E+00,   0.00000000E+00,   3.50000000E+00
6,   0.00000000E+00,   1.05000000E+00,   0.00000000E+00
7,   0.00000000E+00,   1.05000000E+00,   3.50000000E+00
8,   0.00000000E+00,   2.10000000E+00,   0.00000000E+00
9,   0.00000000E+00,   2.10000000E+00,   3.50000000E+00
10,   0.00000000E+00,   3.15000000E+00,   0.00000000E+00
11,   0.00000000E+00,   3.15000000E+00,   3.50000000E+00
12,   0.00000000E+00,   4.20000000E+00,   0.00000000E+00
13,   0.00000000E+00,   4.20000000E+00,   8.75000000E-01
14,   0.00000000E+00,   4.20000000E+00,   1.75000000E+00
15,   0.00000000E+00,   4.20000000E+00,   2.62500000E+00
16,   0.00000000E+00,   4.20000000E+00,   3.50000000E+00
17,   3.35416700E-01,   3.50000000E+00,   3.50000000E+00
18,   5.03125000E-01,   0.00000000E+00,   8.75000000E-01
19,   5.03125000E-01,   4.20000000E+00,   8.75000000E-01
20,   6.70833300E-01,   2.80000000E+00,   3.50000000E+00
** ... 666 like lines cut
*ELEMENT,TYPE=S6,ELSET=E0
1,8,1,38,6,23,26,
*ELEMENT,TYPE=S6,ELSET=E1
2,8,33,12,21,22,10,
*ELEMENT,TYPE=S6,ELSET=E2
3,8,38,50,26,46,32,
*ELEMENT,TYPE=S6,ELSET=E3
4,8,50,33,32,45,21,
*ELEMENT,TYPE=S6,ELSET=E4
5,12,33,43,22,37,28,
*ELEMENT,TYPE=S6,ELSET=E5
6,50,67,33,60,51,45,
*ELEMENT,TYPE=S6,ELSET=E6
7,33,67,43,51,55,37,
*ELEMENT,TYPE=S6,ELSET=E7
8,50,38,64,46,52,59,
*ELEMENT,TYPE=S6,ELSET=E8
9,43,67,69,55,68,56,
*ELEMENT,TYPE=S6,ELSET=E9
10,50,64,67,59,66,60,
*ELEMENT,TYPE=S6,ELSET=E10
11,67,64,88,66,76,77,
*ELEMENT,TYPE=S6,ELSET=E11
12,94,88,64,92,76,79,
*ELEMENT,TYPE=S6,ELSET=E12
13,67,85,69,74,75,68,
*ELEMENT,TYPE=S6,ELSET=E13
14,67,88,85,77,86,74,
*ELEMENT,TYPE=S6,ELSET=E14
15,85,99,69,91,82,75,
*ELEMENT,TYPE=S6,ELSET=E15
16,85,106,99,93,102,91,
*ELEMENT,TYPE=S6,ELSET=E16
17,88,106,85,101,93,86,
*ELEMENT,TYPE=S6,ELSET=E17
18,123,88,94,105,92,111,
*ELEMENT,TYPE=S6,ELSET=E18
19,106,88,123,101,105,115,
*ELEMENT,TYPE=S6,ELSET=E19
20,123,94,120,111,108,122,
** ... 232 like lines cut
*ELEMENT,TYPE=B32R,ELSET=E136
137,5,25,39,
*ELEMENT,TYPE=B32R,ELSET=E137
138,16,30,44,
*ELEMENT,TYPE=B32R,ELSET=E138
139,39,54,65,
*ELEMENT,TYPE=B32R,ELSET=E139
140,44,58,70,
*ELEMENT,TYPE=B32R,ELSET=E140
141,65,81,95,
*ELEMENT,TYPE=B32R,ELSET=E141
142,70,84,100,
*ELEMENT,TYPE=B32R,ELSET=E142
143,95,110,121,
*ELEMENT,TYPE=B32R,ELSET=E143
144,100,114,126,
*ELEMENT,TYPE=B32R,ELSET=E144
145,121,135,147,
*ELEMENT,TYPE=B32R,ELSET=E145
146,126,139,152,
*ELEMENT,TYPE=B32R,ELSET=E146
147,147,162,173,
*ELEMENT,TYPE=B32R,ELSET=E147
148,152,166,178,
*ELEMENT,TYPE=B32R,ELSET=E148
149,173,189,203,
*ELEMENT,TYPE=B32R,ELSET=E149
150,178,192,208,
*ELEMENT,TYPE=B32R,ELSET=E150
151,203,221,233,
*ELEMENT,TYPE=B32R,ELSET=E151
152,208,224,238,
*ELEMENT,TYPE=B32R,ELSET=E152
153,233,247,259,
*ELEMENT,TYPE=B32R,ELSET=E153
154,238,251,264,
*ELEMENT,TYPE=B32R,ELSET=E154
155,259,274,285,
*ELEMENT,TYPE=B32R,ELSET=E155
156,264,278,290,
** ... 618 like lines cut
*ELSET,ELSET=EALL
1
2
3
4
5
6
7
8
9
10
11
12
13
14
15
16
17
18
19
20
** ... 445 like lines cut
*BOUNDARY
1, 1, 6
671, 1, 6
12, 1, 6
682, 1, 6
*MATERIAL,NAME=MAT0
*ELASTIC
  2.00000000E+11, 0.3
*DENSITY
  7.80000000E+03
*MATERIAL,NAME=MAT1
*ELASTIC
  2.00000000E+11, 0.3
*DENSITY
  7.80000000E+03
*MATERIAL,NAME=MAT2
*ELASTIC
  2.00000000E+11, 0.3
*DENSITY
  7.80000000E+03
*MATERIAL,NAME=MAT3
*ELASTIC
  2.00000000E+11, 0.3
*DENSITY
  7.80000000E+03
*MATERIAL,NAME=MAT4
*ELASTIC
  2.00000000E+11, 0.3
*DENSITY
  7.80000000E+03
*MATERIAL,NAME=MAT5
*ELASTIC
  2.00000000E+11, 0.3
*DENSITY
  7.80000000E+03
*MATERIAL,NAME=MAT6
*ELASTIC
  2.00000000E+11, 0.3
*DENSITY
  7.80000000E+03
*MATERIAL,NAME=MAT7
*ELASTIC
  2.00000000E+11, 0.3
*DENSITY
  7.80000000E+03
*MATERIAL,NAME=MAT8
*ELASTIC
  2.00000000E+11, 0.3
*DENSITY
  7.80000000E+03
*MATERIAL,NAME=MAT9
*ELASTIC
  2.00000000E+11, 0.3
*DENSITY
  7.80000000E+03
*MATERIAL,NAME=MAT10
*ELASTIC
  2.00000000E+11, 0.3
*DENSITY
  7.80000000E+03
*MATERIAL,NAME=MAT11
*ELASTIC
  2.00000000E+11, 0.3
*DENSITY
  7.80000000E+03
*MATERIAL,NAME=MAT12
*ELASTIC
  2.00000000E+11, 0.3
*DENSITY
  7.80000000E+03
*MATERIAL,NAME=MAT13
*ELASTIC
  2.00000000E+11, 0.3
*DENSITY
  7.80000000E+03
*MATERIAL,NAME=MAT14
*ELASTIC
  2.00000000E+11, 0.3
*DENSITY
  7.80000000E+03
*MATERIAL,NAME=MAT15
*ELASTIC
  2.00000000E+11, 0.3
*DENSITY
  7.80000000E+03
*MATERIAL,NAME=MAT16
*ELASTIC
  2.00000000E+11, 0.3
*DENSITY
  7.80000000E+03
*MATERIAL,NAME=MAT17
*ELASTIC
  2.00000000E+11, 0.3
*DENSITY
  7.80000000E+03
*MATERIAL,NAME=MAT18
*ELASTIC
  2.00000000E+11, 0.3
*DENSITY
  7.80000000E+03
*MATERIAL,NAME=MAT19
*ELASTIC
  2.00000000E+11, 0.3
*DENSITY
  7.80000000E+03
*MATERIAL,NAME=MAT20
*ELASTIC
  2.00000000E+11, 0.3
*DENSITY
  7.80000000E+03
*MATERIAL,NAME=MAT21
*ELASTIC
  2.00000000E+11, 0.3
*DENSITY
  7.80000000E+03
*MATERIAL,NAME=MAT22
*ELASTIC
  2.00000000E+11, 0.3
*DENSITY
  7.80000000E+03
*MATERIAL,NAME=MAT23
*ELASTIC
  2.00000000E+11, 0.3
*DENSITY
  7.80000000E+03
*MATERIAL,NAME=MAT24
*ELASTIC
  2.00000000E+11, 0.3
*DENSITY
  7.80000000E+03
*MATERIAL,NAME=MAT25
*ELASTIC
  2.00000000E+11, 0.3
*DENSITY
  7.80000000E+03
*MATERIAL,NAME=MAT26
*ELASTIC
  2.00000000E+11, 0.3
*DENSITY
  7.80000000E+03
*MATERIAL,NAME=MAT27
*ELASTIC
  2.00000000E+11, 0.3
*DENSITY
  7.80000000E+03
*MATERIAL,NAME=MAT28
*ELASTIC
  2.00000000E+11, 0.3
*DENSITY
  7.80000000E+03
*MATERIAL,NAME=MAT29
*ELASTIC
  2.00000000E+11, 0.3
*DENSITY
  7.80000000E+03
*MATERIAL,NAME=MAT30
*ELASTIC
  2.00000000E+11, 0.3
*DENSITY
  7.80000000E+03
*MATERIAL,NAME=MAT31
*ELASTIC
  2.00000000E+11, 0.3
*DENSITY
  7.80000000E+03
*MATERIAL,NAME=MAT32
*ELASTIC
  2.00000000E+11, 0.3
*DENSITY
  7.80000000E+03
*MATERIAL,NAME=MAT33
*ELASTIC
  2.00000000E+11, 0.3
*DENSITY
  7.80000000E+03
*MATERIAL,NAME=MAT34
*ELASTIC
  2.00000000E+11, 0.3
*DENSITY
  7.80000000E+03
*MATERIAL,NAME=MAT35
*ELASTIC
  2.00000000E+11, 0.3
*DENSITY
  7.80000000E+03
*MATERIAL,NAME=MAT36
*ELASTIC
  2.00000000E+11, 0.3
*DENSITY
  7.80000000E+03
*MATERIAL,NAME=MAT37
*ELASTIC
  2.00000000E+11, 0.3
*DENSITY
  7.80000000E+03
*MATERIAL,NAME=MAT38
*ELASTIC
  2.00000000E+11, 0.3
*DENSITY
  7.80000000E+03
*MATERIAL,NAME=MAT39
*ELASTIC
  2.00000000E+11, 0.3
*DENSITY
  7.80000000E+03
*MATERIAL,NAME=MAT40
*ELASTIC
  2.00000000E+11, 0.3
*DENSITY
  7.80000000E+03
*MATERIAL,NAME=MAT41
*ELASTIC
  2.00000000E+11, 0.3
*DENSITY
  7.80000000E+03
*MATERIAL,NAME=MAT42
*ELASTIC
  2.00000000E+11, 0.3
*DENSITY
  7.80000000E+03
*MATERIAL,NAME=MAT43
*ELASTIC
  2.00000000E+11, 0.3
*DENSITY
  7.80000000E+03
*MATERIAL,NAME=MAT44
*ELASTIC
  2.00000000E+11, 0.3
*DENSITY
  7.80000000E+03
*MATERIAL,NAME=MAT45
*ELASTIC
  2.00000000E+11, 0.3
*DENSITY
  7.80000000E+03
*MATERIAL,NAME=MAT46
*ELASTIC
  2.00000000E+11, 0.3
*DENSITY
  7.80000000E+03
*MATERIAL,NAME=MAT47
*ELASTIC
  2.00000000E+11, 0.3
*DENSITY
  7.80000000E+03
*MATERIAL,NAME=MAT48
*ELASTIC
  2.00000000E+11, 0.3
*DENSITY
  7.80000000E+03
*MATERIAL,NAME=MAT49
*ELASTIC
  2.00000000E+11, 0.3
*DENSITY
  7.80000000E+03
*MATERIAL,NAME=MAT50
*ELASTIC
  2.00000000E+11, 0.3
*DENSITY
  7.80000000E+03
*MATERIAL,NAME=MAT51
*ELASTIC
  2.00000000E+11, 0.3
*DENSITY
  7.80000000E+03
*MATERIAL,NAME=MAT52
*ELASTIC
  2.00000000E+11, 0.3
*DENSITY
  7.80000000E+03
*MATERIAL,NAME=MAT53
*ELASTIC
  2.00000000E+11, 0.3
*DENSITY
  7.80000000E+03
*MATERIAL,NAME=MAT54
*ELASTIC
  2.00000000E+11, 0.3
*DENSITY
  7.80000000E+03
*MATERIAL,NAME=MAT55
*ELASTIC
  2.00000000E+11, 0.3
*DENSITY
  7.80000000E+03
*MATERIAL,NAME=MAT56
*ELASTIC
  2.00000000E+11, 0.3
*DENSITY
  7.80000000E+03
*MATERIAL,NAME=MAT57
*ELASTIC
  2.00000000E+11, 0.3
*DENSITY
  7.80000000E+03
*MATERIAL,NAME=MAT58
*ELASTIC
  2.00000000E+11, 0.3
*DENSITY
  7.80000000E+03
*MATERIAL,NAME=MAT59
*ELASTIC
  2.00000000E+11, 0.3
*DENSITY
  7.80000000E+03
*MATERIAL,NAME=MAT60
*ELASTIC
  2.00000000E+11, 0.3
*DENSITY
  7.80000000E+03
*MATERIAL,NAME=MAT61
*ELASTIC
  2.00000000E+11, 0.3
*DENSITY
  7.80000000E+03
*MATERIAL,NAME=MAT62
*ELASTIC
  2.00000000E+11, 0.3
*DENSITY
  7.80000000E+03
*MATERIAL,NAME=MAT63
*ELASTIC
  2.00000000E+11, 0.3
*DENSITY
  7.80000000E+03
*MATERIAL,NAME=MAT64
*ELASTIC
  2.00000000E+11, 0.3
*DENSITY
  7.80000000E+03
*MATERIAL,NAME=MAT65
*ELASTIC
  2.00000000E+11, 0.3
*DENSITY
  7.80000000E+03
*MATERIAL,NAME=MAT66
*ELASTIC
  2.00000000E+11, 0.3
*DENSITY
  7.80000000E+03
*MATERIAL,NAME=MAT67
*ELASTIC
  2.00000000E+11, 0.3
*DENSITY
  7.80000000E+03
*MATERIAL,NAME=MAT68
*ELASTIC
  2.00000000E+11, 0.3
*DENSITY
  7.80000000E+03
*MATERIAL,NAME=MAT69
*ELASTIC
  2.00000000E+11, 0.3
*DENSITY
  7.80000000E+03
*MATERIAL,NAME=MAT70
*ELASTIC
  2.00000000E+11, 0.3
*DENSITY
  7.80000000E+03
*MATERIAL,NAME=MAT71
*ELASTIC
  2.00000000E+11, 0.3
*DENSITY
  7.80000000E+03
*MATERIAL,NAME=MAT72
*ELASTIC
  2.00000000E+11, 0.3
*DENSITY
  7.80000000E+03
*MATERIAL,NAME=MAT73
*ELASTIC
  2.00000000E+11, 0.3
*DENSITY
  7.80000000E+03
*MATERIAL,NAME=MAT74
*ELASTIC
  2.00000000E+11, 0.3
*DENSITY
  7.80000000E+03
*MATERIAL,NAME=MAT75
*ELASTIC
  2.00000000E+11, 0.3
*DENSITY
  7.80000000E+03
*MATERIAL,NAME=MAT76
*ELASTIC
  2.00000000E+11, 0.3
*DENSITY
  7.80000000E+03
*MATERIAL,NAME=MAT77
*ELASTIC
  2.00000000E+11, 0.3
*DENSITY
  7.80000000E+03
*MATERIAL,NAME=MAT78
*ELASTIC
  2.00000000E+11, 0.3
*DENSITY
  7.80000000E+03
*MATERIAL,NAME=MAT79
*ELASTIC
  2.00000000E+11, 0.3
*DENSITY
  7.80000000E+03
*MATERIAL,NAME=MAT80
*ELASTIC
  2.00000000E+11, 0.3
*DENSITY
  7.80000000E+03
*MATERIAL,NAME=MAT81
*ELASTIC
  2.00000000E+11, 0.3
*DENSITY
  7.80000000E+03
*MATERIAL,NAME=MAT82
*ELASTIC
  2.00000000E+11, 0.3
*DENSITY
  7.80000000E+03
*MATERIAL,NAME=MAT83
*ELASTIC
  2.00000000E+11, 0.3
*DENSITY
  7.80000000E+03
*MATERIAL,NAME=MAT84
*ELASTIC
  2.00000000E+11, 0.3
*DENSITY
  7.80000000E+03
*MATERIAL,NAME=MAT85
*ELASTIC
  2.00000000E+11, 0.3
*DENSITY
  7.80000000E+03
*MATERIAL,NAME=MAT86
*ELASTIC
  2.00000000E+11, 0.3
*DENSITY
  7.80000000E+03
*MATERIAL,NAME=MAT87
*ELASTIC
  2.00000000E+11, 0.3
*DENSITY
  7.80000000E+03
*MATERIAL,NAME=MAT88
*ELASTIC
  2.00000000E+11, 0.3
*DENSITY
  7.80000000E+03
*MATERIAL,NAME=MAT89
*ELASTIC
  2.00000000E+11, 0.3
*DENSITY
  7.80000000E+03
*MATERIAL,NAME=MAT90
*ELASTIC
  2.00000000E+11, 0.3
*DENSITY
  7.80000000E+03
*MATERIAL,NAME=MAT91
*ELASTIC
  2.00000000E+11, 0.3
*DENSITY
  7.80000000E+03
*MATERIAL,NAME=MAT92
*ELASTIC
  2.00000000E+11, 0.3
*DENSITY
  7.80000000E+03
*MATERIAL,NAME=MAT93
*ELASTIC
  2.00000000E+11, 0.3
*DENSITY
  7.80000000E+03
*MATERIAL,NAME=MAT94
*ELASTIC
  2.00000000E+11, 0.3
*DENSITY
  7.80000000E+03
*MATERIAL,NAME=MAT95
*ELASTIC
  2.00000000E+11, 0.3
*DENSITY
  7.80000000E+03
*MATERIAL,NAME=MAT96
*ELASTIC
  2.00000000E+11, 0.3
*DENSITY
  7.80000000E+03
*MATERIAL,NAME=MAT97
*ELASTIC
  2.00000000E+11, 0.3
*DENSITY
  7.80000000E+03
*MATERIAL,NAME=MAT98
*ELASTIC
  2.00000000E+11, 0.3
*DENSITY
  7.80000000E+03
*MATERIAL,NAME=MAT99
*ELASTIC
  2.00000000E+11, 0.3
*DENSITY
  7.80000000E+03
*MATERIAL,NAME=MAT100
*ELASTIC
  2.00000000E+11, 0.3
*DENSITY
  7.80000000E+03
*MATERIAL,NAME=MAT101
*ELASTIC
  2.00000000E+11, 0.3
*DENSITY
  7.80000000E+03
*MATERIAL,NAME=MAT102
*ELASTIC
  2.00000000E+11, 0.3
*DENSITY
  7.80000000E+03
*MATERIAL,NAME=MAT103
*ELASTIC
  2.00000000E+11, 0.3
*DENSITY
  7.80000000E+03
*MATERIAL,NAME=MAT104
*ELASTIC
  2.00000000E+11, 0.3
*DENSITY
  7.80000000E+03
*MATERIAL,NAME=MAT105
*ELASTIC
  2.00000000E+11, 0.3
*DENSITY
  7.80000000E+03
*MATERIAL,NAME=MAT106
*ELASTIC
  2.00000000E+11, 0.3
*DENSITY
  7.80000000E+03
*MATERIAL,NAME=MAT107
*ELASTIC
  2.00000000E+11, 0.3
*DENSITY
  7.80000000E+03
*MATERIAL,NAME=MAT108
*ELASTIC
  2.00000000E+11, 0.3
*DENSITY
  7.80000000E+03
*MATERIAL,NAME=MAT109
*ELASTIC
  2.00000000E+11, 0.3
*DENSITY
  7.80000000E+03
*MATERIAL,NAME=MAT110
*ELASTIC
  2.00000000E+11, 0.3
*DENSITY
  7.80000000E+03
*MATERIAL,NAME=MAT111
*ELASTIC
  2.00000000E+11, 0.3
*DENSITY
  7.80000000E+03
*MATERIAL,NAME=MAT112
*ELASTIC
  2.00000000E+11, 0.3
*DENSITY
  7.80000000E+03
*MATERIAL,NAME=MAT113
*ELASTIC
  2.00000000E+11, 0.3
*DENSITY
  7.80000000E+03
*MATERIAL,NAME=MAT114
*ELASTIC
  2.00000000E+11, 0.3
*DENSITY
  7.80000000E+03
*MATERIAL,NAME=MAT115
*ELASTIC
  2.00000000E+11, 0.3
*DENSITY
  7.80000000E+03
*MATERIAL,NAME=MAT116
*ELASTIC
  2.00000000E+11, 0.3
*DENSITY
  7.80000000E+03
*MATERIAL,NAME=MAT117
*ELASTIC
  2.00000000E+11, 0.3
*DENSITY
  7.80000000E+03
*MATERIAL,NAME=MAT118
*ELASTIC
  2.00000000E+11, 0.3
*DENSITY
  7.80000000E+03
*MATERIAL,NAME=MAT119
*ELASTIC
  2.00000000E+11, 0.3
*DENSITY
  7.80000000E+03
*MATERIAL,NAME=MAT120
*ELASTIC
  2.00000000E+11, 0.3
*DENSITY
  7.80000000E+03
*MATERIAL,NAME=MAT121
*ELASTIC
  2.00000000E+11, 0.3
*DENSITY
  7.80000000E+03
*MATERIAL,NAME=MAT122
*ELASTIC
  2.00000000E+11, 0.3
*DENSITY
  7.80000000E+03
*MATERIAL,NAME=MAT123
*ELASTIC
  2.00000000E+11, 0.3
*DENSITY
  7.80000000E+03
*MATERIAL,NAME=MAT124
*ELASTIC
  2.00000000E+11, 0.3
*DENSITY
  7.80000000E+03
*MATERIAL,NAME=MAT125
*ELASTIC
  2.00000000E+11, 0.3
*DENSITY
  7.80000000E+03
*MATERIAL,NAME=MAT126
*ELASTIC
  2.00000000E+11, 0.3
*DENSITY
  7.80000000E+03
*MATERIAL,NAME=MAT127
*ELASTIC
  2.00000000E+11, 0.3
*DENSITY
  7.80000000E+03
*MATERIAL,NAME=MAT128
*ELASTIC
  2.00000000E+11, 0.3
*DENSITY
  7.80000000E+03
*MATERIAL,NAME=MAT129
*ELASTIC
  2.00000000E+11, 0.3
*DENSITY
  7.80000000E+03
*MATERIAL,NAME=MAT130
*ELASTIC
  2.00000000E+11, 0.3
*DENSITY
  7.80000000E+03
*MATERIAL,NAME=MAT131
*ELASTIC
  2.00000000E+11, 0.3
*DENSITY
  7.80000000E+03
*MATERIAL,NAME=MAT132
*ELASTIC
  2.00000000E+11, 0.3
*DENSITY
  7.80000000E+03
*MATERIAL,NAME=MAT133
*ELASTIC
  2.00000000E+11, 0.3
*DENSITY
  7.80000000E+03
*MATERIAL,NAME=MAT134
*ELASTIC
  2.00000000E+11, 0.3
*DENSITY
  7.80000000E+03
*MATERIAL,NAME=MAT135
*ELASTIC
  2.00000000E+11, 0.3
*DENSITY
  7.80000000E+03
*MATERIAL,NAME=MAT136
*ELASTIC
  2.00000000E+11, 0.3
*DENSITY
  7.80000000E+03
*MATERIAL,NAME=MAT137
*ELASTIC
  2.00000000E+11, 0.3
*DENSITY
  7.80000000E+03
*MATERIAL,NAME=MAT138
*ELASTIC
  2.00000000E+11, 0.3
*DENSITY
  7.80000000E+03
*MATERIAL,NAME=MAT139
*ELASTIC
  2.00000000E+11, 0.3
*DENSITY
  7.80000000E+03
*MATERIAL,NAME=MAT140
*ELASTIC
  2.00000000E+11, 0.3
*DENSITY
  7.80000000E+03
*MATERIAL,NAME=MAT141
*ELASTIC
  2.00000000E+11, 0.3
*DENSITY
  7.80000000E+03
*MATERIAL,NAME=MAT142
*ELASTIC
  2.00000000E+11, 0.3
*DENSITY
  7.80000000E+03
*MATERIAL,NAME=MAT143
*ELASTIC
  2.00000000E+11, 0.3
*DENSITY
  7.80000000E+03
*MATERIAL,NAME=MAT144
*ELASTIC
  2.00000000E+11, 0.3
*DENSITY
  7.80000000E+03
*MATERIAL,NAME=MAT145
*ELASTIC
  2.00000000E+11, 0.3
*DENSITY
  7.80000000E+03
*MATERIAL,NAME=MAT146
*ELASTIC
  2.00000000E+11, 0.3
*DENSITY
  7.80000000E+03
*MATERIAL,NAME=MAT147
*ELASTIC
  2.00000000E+11, 0.3
*DENSITY
  7.80000000E+03
*MATERIAL,NAME=MAT148
*ELASTIC
  2.00000000E+11, 0.3
*DENSITY
  7.80000000E+03
*MATERIAL,NAME=MAT149
*ELASTIC
  2.00000000E+11, 0.3
*DENSITY
  7.80000000E+03
*MATERIAL,NAME=MAT150
*ELASTIC
  2.00000000E+11, 0.3
*DENSITY
  7.80000000E+03
*MATERIAL,NAME=MAT151
*ELASTIC
  2.00000000E+11, 0.3
*DENSITY
  7.80000000E+03
*MATERIAL,NAME=MAT152
*ELASTIC
  2.00000000E+11, 0.3
*DENSITY
  7.80000000E+03
*MATERIAL,NAME=MAT153
*ELASTIC
  2.00000000E+11, 0.3
*DENSITY
  7.80000000E+03
*MATERIAL,NAME=MAT154
*ELASTIC
  2.00000000E+11, 0.3
*DENSITY
  7.80000000E+03
*MATERIAL,NAME=MAT155
*ELASTIC
  2.00000000E+11, 0.3
*DENSITY
  7.80000000E+03
*MATERIAL,NAME=MAT156
*ELASTIC
  2.00000000E+11, 0.3
*DENSITY
  7.80000000E+03
*MATERIAL,NAME=MAT157
*ELASTIC
  2.00000000E+11, 0.3
*DENSITY
  7.80000000E+03
*MATERIAL,NAME=MAT158
*ELASTIC
  2.00000000E+11, 0.3
*DENSITY
  7.80000000E+03
*MATERIAL,NAME=MAT159
*ELASTIC
  2.00000000E+11, 0.3
*DENSITY
  7.80000000E+03
*MATERIAL,NAME=MAT160
*ELASTIC
  2.00000000E+11, 0.3
*DENSITY
  7.80000000E+03
*MATERIAL,NAME=MAT161
*ELASTIC
  2.00000000E+11, 0.3
*DENSITY
  7.80000000E+03
*MATERIAL,NAME=MAT162
*ELASTIC
  2.00000000E+11, 0.3
*DENSITY
  7.80000000E+03
*MATERIAL,NAME=MAT163
*ELASTIC
  2.00000000E+11, 0.3
*DENSITY
  7.80000000E+03
*MATERIAL,NAME=MAT164
*ELASTIC
  2.00000000E+11, 0.3
*DENSITY
  7.80000000E+03
*MATERIAL,NAME=MAT165
*ELASTIC
  2.00000000E+11, 0.3
*DENSITY
  7.80000000E+03
*MATERIAL,NAME=MAT166
*ELASTIC
  2.00000000E+11, 0.3
*DENSITY
  7.80000000E+03
*MATERIAL,NAME=MAT167
*ELASTIC
  2.00000000E+11, 0.3
*DENSITY
  7.80000000E+03
*MATERIAL,NAME=MAT168
*ELASTIC
  2.00000000E+11, 0.3
*DENSITY
  7.80000000E+03
*MATERIAL,NAME=MAT169
*ELASTIC
  2.00000000E+11, 0.3
*DENSITY
  7.80000000E+03
*MATERIAL,NAME=MAT170
*ELASTIC
  2.00000000E+11, 0.3
*DENSITY
  7.80000000E+03
*MATERIAL,NAME=MAT171
*ELASTIC
  2.00000000E+11, 0.3
*DENSITY
  7.80000000E+03
*MATERIAL,NAME=MAT172
*ELASTIC
  2.00000000E+11, 0.3
*DENSITY
  7.80000000E+03
*MATERIAL,NAME=MAT173
*ELASTIC
  2.00000000E+11, 0.3
*DENSITY
  7.80000000E+03
*MATERIAL,NAME=MAT174
*ELASTIC
  2.00000000E+11, 0.3
*DENSITY
  7.80000000E+03
*MATERIAL,NAME=MAT175
*ELASTIC
  2.00000000E+11, 0.3
*DENSITY
  7.80000000E+03
*MATERIAL,NAME=MAT176
*ELASTIC
  2.00000000E+11, 0.3
*DENSITY
  7.80000000E+03
*MATERIAL,NAME=MAT177
*ELASTIC
  2.00000000E+11, 0.3
*DENSITY
  7.80000000E+03
*MATERIAL,NAME=MAT178
*ELASTIC
  2.00000000E+11, 0.3
*DENSITY
  7.80000000E+03
*MATERIAL,NAME=MAT179
*ELASTIC
  2.00000000E+11, 0.3
*DENSITY
  7.80000000E+03
*MATERIAL,NAME=MAT180
*ELASTIC
  2.00000000E+11, 0.3
*DENSITY
  7.80000000E+03
*MATERIAL,NAME=MAT181
*ELASTIC
  2.00000000E+11, 0.3
*DENSITY
  7.80000000E+03
*MATERIAL,NAME=MAT182
*ELASTIC
  2.00000000E+11, 0.3
*DENSITY
  7.80000000E+03
*MATERIAL,NAME=MAT183
*ELASTIC
  2.00000000E+11, 0.3
*DENSITY
  7.80000000E+03
*MATERIAL,NAME=MAT184
*ELASTIC
  2.00000000E+11, 0.3
*DENSITY
  7.80000000E+03
*MATERIAL,NAME=MAT185
*ELASTIC
  2.00000000E+11, 0.3
*DENSITY
  7.80000000E+03
*MATERIAL,NAME=MAT186
*ELASTIC
  2.00000000E+11, 0.3
*DENSITY
  7.80000000E+03
*MATERIAL,NAME=MAT187
*ELASTIC
  2.00000000E+11, 0.3
*DENSITY
  7.80000000E+03
*MATERIAL,NAME=MAT188
*ELASTIC
  2.00000000E+11, 0.3
*DENSITY
  7.80000000E+03
*MATERIAL,NAME=MAT189
*ELASTIC
  2.00000000E+11, 0.3
*DENSITY
  7.80000000E+03
*MATERIAL,NAME=MAT190
*ELASTIC
  2.00000000E+11, 0.3
*DENSITY
  7.80000000E+03
*MATERIAL,NAME=MAT191
*ELASTIC
  2.00000000E+11, 0.3
*DENSITY
  7.80000000E+03
*MATERIAL,NAME=MAT192
*ELASTIC
  2.00000000E+11, 0.3
*DENSITY
  7.80000000E+03
*MATERIAL,NAME=MAT193
*ELASTIC
  2.00000000E+11, 0.3
*DENSITY
  7.80000000E+03
*MATERIAL,NAME=MAT194
*ELASTIC
  2.00000000E+11, 0.3
*DENSITY
  7.80000000E+03
*MATERIAL,NAME=MAT195
*ELASTIC
  2.00000000E+11, 0.3
*DENSITY
  7.80000000E+03
*MATERIAL,NAME=MAT196
*ELASTIC
  2.00000000E+11, 0.3
*DENSITY
  7.80000000E+03
*MATERIAL,NAME=MAT197
*ELASTIC
  2.00000000E+11, 0.3
*DENSITY
  7.80000000E+03
*MATERIAL,NAME=MAT198
*ELASTIC
  2.00000000E+11, 0.3
*DENSITY
  7.80000000E+03
*MATERIAL,NAME=MAT199
*ELASTIC
  2.00000000E+11, 0.3
*DENSITY
  7.80000000E+03
*MATERIAL,NAME=MAT200
*ELASTIC
  2.00000000E+11, 0.3
*DENSITY
  7.80000000E+03
*MATERIAL,NAME=MAT201
*ELASTIC
  2.00000000E+11, 0.3
*DENSITY
  7.80000000E+03
*MATERIAL,NAME=MAT202
*ELASTIC
  2.00000000E+11, 0.3
*DENSITY
  7.80000000E+03
*MATERIAL,NAME=MAT203
*ELASTIC
  2.00000000E+11, 0.3
*DENSITY
  7.80000000E+03
*MATERIAL,NAME=MAT204
*ELASTIC
  2.00000000E+11, 0.3
*DENSITY
  7.80000000E+03
*MATERIAL,NAME=MAT205
*ELASTIC
  2.00000000E+11, 0.3
*DENSITY
  7.80000000E+03
*MATERIAL,NAME=MAT206
*ELASTIC
  2.00000000E+11, 0.3
*DENSITY
  7.80000000E+03
*MATERIAL,NAME=MAT207
*ELASTIC
  2.00000000E+11, 0.3
*DENSITY
  7.80000000E+03
*MATERIAL,NAME=MAT208
*ELASTIC
  2.00000000E+11, 0.3
*DENSITY
  7.80000000E+03
*MATERIAL,NAME=MAT209
*ELASTIC
  2.00000000E+11, 0.3
*DENSITY
  7.80000000E+03
*MATERIAL,NAME=MAT210
*ELASTIC
  2.00000000E+11, 0.3
*DENSITY
  7.80000000E+03
*MATERIAL,NAME=MAT211
*ELASTIC
  2.00000000E+11, 0.3
*DENSITY
  7.80000000E+03
*MATERIAL,NAME=MAT212
*ELASTIC
  2.00000000E+11, 0.3
*DENSITY
  7.80000000E+03
*MATERIAL,NAME=MAT213
*ELASTIC
  2.00000000E+11, 0.3
*DENSITY
  7.80000000E+03
*MATERIAL,NAME=MAT214
*ELASTIC
  2.00000000E+11, 0.3
*DENSITY
  7.80000000E+03
*MATERIAL,NAME=MAT215
*ELASTIC
  2.00000000E+11, 0.3
*DENSITY
  7.80000000E+03
*MATERIAL,NAME=MAT216
*ELASTIC
  2.00000000E+11, 0.3
*DENSITY
  7.80000000E+03
*MATERIAL,NAME=MAT217
*ELASTIC
  2.00000000E+11, 0.3
*DENSITY
  7.80000000E+03
*MATERIAL,NAME=MAT218
*ELASTIC
  2.00000000E+11, 0.3
*DENSITY
  7.80000000E+03
*MATERIAL,NAME=MAT219
*ELASTIC
  2.00000000E+11, 0.3
*DENSITY
  7.80000000E+03
*MATERIAL,NAME=MAT220
*ELASTIC
  2.00000000E+11, 0.3
*DENSITY
  7.80000000E+03
*MATERIAL,NAME=MAT221
*ELASTIC
  2.00000000E+11, 0.3
*DENSITY
  7.80000000E+03
*MATERIAL,NAME=MAT222
*ELASTIC
  2.00000000E+11, 0.3
*DENSITY
  7.80000000E+03
*MATERIAL,NAME=MAT223
*ELASTIC
  2.00000000E+11, 0.3
*DENSITY
  7.80000000E+03
*MATERIAL,NAME=MAT224
*ELASTIC
  2.00000000E+11, 0.3
*DENSITY
  7.80000000E+03
*MATERIAL,NAME=MAT225
*ELASTIC
  2.00000000E+11, 0.3
*DENSITY
  7.80000000E+03
*MATERIAL,NAME=MAT226
*ELASTIC
  2.00000000E+11, 0.3
*DENSITY
  7.80000000E+03
*MATERIAL,NAME=MAT227
*ELASTIC
  2.00000000E+11, 0.3
*DENSITY
  7.80000000E+03
*MATERIAL,NAME=MAT228
*ELASTIC
  2.00000000E+11, 0.3
*DENSITY
  7.80000000E+03
*MATERIAL,NAME=MAT229
*ELASTIC
  2.00000000E+11, 0.3
*DENSITY
  7.80000000E+03
*MATERIAL,NAME=MAT230
*ELASTIC
  2.00000000E+11, 0.3
*DENSITY
  7.80000000E+03
*MATERIAL,NAME=MAT231
*ELASTIC
  2.00000000E+11, 0.3
*DENSITY
  7.80000000E+03
*MATERIAL,NAME=MAT232
*ELASTIC
  2.00000000E+11, 0.3
*DENSITY
  7.80000000E+03
*MATERIAL,NAME=MAT233
*ELASTIC
  2.00000000E+11, 0.3
*DENSITY
  7.80000000E+03
*MATERIAL,NAME=MAT234
*ELASTIC
  2.00000000E+11, 0.3
*DENSITY
  7.80000000E+03
*MATERIAL,NAME=MAT235
*ELASTIC
  2.00000000E+11, 0.3
*DENSITY
  7.80000000E+03
*MATERIAL,NAME=MAT236
*ELASTIC
  2.00000000E+11, 0.3
*DENSITY
  7.80000000E+03
*MATERIAL,NAME=MAT237
*ELASTIC
  2.00000000E+11, 0.3
*DENSITY
  7.80000000E+03
*MATERIAL,NAME=MAT238
*ELASTIC
  2.00000000E+11, 0.3
*DENSITY
  7.80000000E+03
*MATERIAL,NAME=MAT239
*ELASTIC
  2.00000000E+11, 0.3
*DENSITY
  7.80000000E+03
*MATERIAL,NAME=MAT240
*ELASTIC
  2.00000000E+11, 0.3
*DENSITY
  7.80000000E+03
*MATERIAL,NAME=MAT241
*ELASTIC
  2.00000000E+11, 0.3
*DENSITY
  7.80000000E+03
*MATERIAL,NAME=MAT242
*ELASTIC
  2.00000000E+11, 0.3
*DENSITY
  7.80000000E+03
*MATERIAL,NAME=MAT243
*ELASTIC
  2.00000000E+11, 0.3
*DENSITY
  7.80000000E+03
*MATERIAL,NAME=MAT244
*ELASTIC
  2.00000000E+11, 0.3
*DENSITY
  7.80000000E+03
*MATERIAL,NAME=MAT245
*ELASTIC
  2.00000000E+11, 0.3
*DENSITY
  7.80000000E+03
*MATERIAL,NAME=MAT246
*ELASTIC
  2.00000000E+11, 0.3
*DENSITY
  7.80000000E+03
*MATERIAL,NAME=MAT247
*ELASTIC
  2.00000000E+11, 0.3
*DENSITY
  7.80000000E+03
*MATERIAL,NAME=MAT248
*ELASTIC
  2.00000000E+11, 0.3
*DENSITY
  7.80000000E+03
*MATERIAL,NAME=MAT249
*ELASTIC
  2.00000000E+11, 0.3
*DENSITY
  7.80000000E+03
*MATERIAL,NAME=MAT250
*ELASTIC
  2.00000000E+11, 0.3
*DENSITY
  7.80000000E+03
*MATERIAL,NAME=MAT251
*ELASTIC
  2.00000000E+11, 0.3
*DENSITY
  7.80000000E+03
*MATERIAL,NAME=MAT252
*ELASTIC
  2.00000000E+11, 0.3
*DENSITY
  7.80000000E+03
*MATERIAL,NAME=MAT253
*ELASTIC
  2.00000000E+11, 0.3
*DENSITY
  7.80000000E+03
*MATERIAL,NAME=MAT254
*ELASTIC
  2.00000000E+11, 0.3
*DENSITY
  7.80000000E+03
*MATERIAL,NAME=MAT255
*ELASTIC
  2.00000000E+11, 0.3
*DENSITY
  7.80000000E+03
*MATERIAL,NAME=MAT256
*ELASTIC
  2.00000000E+11, 0.3
*DENSITY
  7.80000000E+03
*MATERIAL,NAME=MAT257
*ELASTIC
  2.00000000E+11, 0.3
*DENSITY
  7.80000000E+03
*MATERIAL,NAME=MAT258
*ELASTIC
  2.00000000E+11, 0.3
*DENSITY
  7.80000000E+03
*MATERIAL,NAME=MAT259
*ELASTIC
  2.00000000E+11, 0.3
*DENSITY
  7.80000000E+03
*MATERIAL,NAME=MAT260
*ELASTIC
  2.00000000E+11, 0.3
*DENSITY
  7.80000000E+03
*MATERIAL,NAME=MAT261
*ELASTIC
  2.00000000E+11, 0.3
*DENSITY
  7.80000000E+03
*MATERIAL,NAME=MAT262
*ELASTIC
  2.00000000E+11, 0.3
*DENSITY
  7.80000000E+03
*MATERIAL,NAME=MAT263
*ELASTIC
  2.00000000E+11, 0.3
*DENSITY
  7.80000000E+03
*MATERIAL,NAME=MAT264
*ELASTIC
  2.00000000E+11, 0.3
*DENSITY
  7.80000000E+03
*MATERIAL,NAME=MAT265
*ELASTIC
  2.00000000E+11, 0.3
*DENSITY
  7.80000000E+03
*MATERIAL,NAME=MAT266
*ELASTIC
  2.00000000E+11, 0.3
*DENSITY
  7.80000000E+03
*MATERIAL,NAME=MAT267
*ELASTIC
  2.00000000E+11, 0.3
*DENSITY
  7.80000000E+03
*MATERIAL,NAME=MAT268
*ELASTIC
  2.00000000E+11, 0.3
*DENSITY
  7.80000000E+03
*MATERIAL,NAME=MAT269
*ELASTIC
  2.00000000E+11, 0.3
*DENSITY
  7.80000000E+03
*MATERIAL,NAME=MAT270
*ELASTIC
  2.00000000E+11, 0.3
*DENSITY
  7.80000000E+03
*MATERIAL,NAME=MAT271
*ELASTIC
  2.00000000E+11, 0.3
*DENSITY
  7.80000000E+03
*MATERIAL,NAME=MAT272
*ELASTIC
  2.00000000E+11, 0.3
*DENSITY
  7.80000000E+03
*MATERIAL,NAME=MAT273
*ELASTIC
  2.00000000E+11, 0.3
*DENSITY
  7.80000000E+03
*MATERIAL,NAME=MAT274
*ELASTIC
  2.00000000E+11, 0.3
*DENSITY
  7.80000000E+03
*MATERIAL,NAME=MAT275
*ELASTIC
  2.00000000E+11, 0.3
*DENSITY
  7.80000000E+03
*MATERIAL,NAME=MAT276
*ELASTIC
  2.00000000E+11, 0.3
*DENSITY
  7.80000000E+03
*MATERIAL,NAME=MAT277
*ELASTIC
  2.00000000E+11, 0.3
*DENSITY
  7.80000000E+03
*MATERIAL,NAME=MAT278
*ELASTIC
  2.00000000E+11, 0.3
*DENSITY
  7.80000000E+03
*MATERIAL,NAME=MAT279
*ELASTIC
  2.00000000E+11, 0.3
*DENSITY
  7.80000000E+03
*MATERIAL,NAME=MAT280
*ELASTIC
  2.00000000E+11, 0.3
*DENSITY
  7.80000000E+03
*MATERIAL,NAME=MAT281
*ELASTIC
  2.00000000E+11, 0.3
*DENSITY
  7.80000000E+03
*MATERIAL,NAME=MAT282
*ELASTIC
  2.00000000E+11, 0.3
*DENSITY
  7.80000000E+03
*MATERIAL,NAME=MAT283
*ELASTIC
  2.00000000E+11, 0.3
*DENSITY
  7.80000000E+03
*MATERIAL,NAME=MAT284
*ELASTIC
  2.00000000E+11, 0.3
*DENSITY
  7.80000000E+03
*MATERIAL,NAME=MAT285
*ELASTIC
  2.00000000E+11, 0.3
*DENSITY
  7.80000000E+03
*MATERIAL,NAME=MAT286
*ELASTIC
  2.00000000E+11, 0.3
*DENSITY
  7.80000000E+03
*MATERIAL,NAME=MAT287
*ELASTIC
  2.00000000E+11, 0.3
*DENSITY
  7.80000000E+03
*MATERIAL,NAME=MAT288
*ELASTIC
  2.00000000E+11, 0.3
*DENSITY
  7.80000000E+03
*MATERIAL,NAME=MAT289
*ELASTIC
  2.00000000E+11, 0.3
*DENSITY
  7.80000000E+03
*MATERIAL,NAME=MAT290
*ELASTIC
  2.00000000E+11, 0.3
*DENSITY
  7.80000000E+03
*MATERIAL,NAME=MAT291
*ELASTIC
  2.00000000E+11, 0.3
*DENSITY
  7.80000000E+03
*MATERIAL,NAME=MAT292
*ELASTIC
  2.00000000E+11, 0.3
*DENSITY
  7.80000000E+03
*MATERIAL,NAME=MAT293
*ELASTIC
  2.00000000E+11, 0.3
*DENSITY
  7.80000000E+03
*MATERIAL,NAME=MAT294
*ELASTIC
  2.00000000E+11, 0.3
*DENSITY
  7.80000000E+03
*MATERIAL,NAME=MAT295
*ELASTIC
  2.00000000E+11, 0.3
*DENSITY
  7.80000000E+03
*MATERIAL,NAME=MAT296
*ELASTIC
  2.00000000E+11, 0.3
*DENSITY
  7.80000000E+03
*MATERIAL,NAME=MAT297
*ELASTIC
  2.00000000E+11, 0.3
*DENSITY
  7.80000000E+03
*MATERIAL,NAME=MAT298
*ELASTIC
  2.00000000E+11, 0.3
*DENSITY
  7.80000000E+03
*MATERIAL,NAME=MAT299
*ELASTIC
  2.00000000E+11, 0.3
*DENSITY
  7.80000000E+03
*MATERIAL,NAME=MAT300
*ELASTIC
  2.00000000E+11, 0.3
*DENSITY
  7.80000000E+03
*MATERIAL,NAME=MAT301
*ELASTIC
  2.00000000E+11, 0.3
*DENSITY
  7.80000000E+03
*MATERIAL,NAME=MAT302
*ELASTIC
  2.00000000E+11, 0.3
*DENSITY
  7.80000000E+03
*MATERIAL,NAME=MAT303
*ELASTIC
  2.00000000E+11, 0.3
*DENSITY
  7.80000000E+03
*MATERIAL,NAME=MAT304
*ELASTIC
  2.00000000E+11, 0.3
*DENSITY
  7.80000000E+03
*MATERIAL,NAME=MAT305
*ELASTIC
  2.00000000E+11, 0.3
*DENSITY
  7.80000000E+03
*MATERIAL,NAME=MAT306
*ELASTIC
  2.00000000E+11, 0.3
*DENSITY
  7.80000000E+03
*MATERIAL,NAME=MAT307
*ELASTIC
  2.00000000E+11, 0.3
*DENSITY
  7.80000000E+03
*MATERIAL,NAME=MAT308
*ELASTIC
  2.00000000E+11, 0.3
*DENSITY
  7.80000000E+03
*MATERIAL,NAME=MAT309
*ELASTIC
  2.00000000E+11, 0.3
*DENSITY
  7.80000000E+03
*MATERIAL,NAME=MAT310
*ELASTIC
  2.00000000E+11, 0.3
*DENSITY
  7.80000000E+03
*MATERIAL,NAME=MAT311
*ELASTIC
  2.00000000E+11, 0.3
*DENSITY
  7.80000000E+03
*MATERIAL,NAME=MAT312
*ELASTIC
  2.00000000E+11, 0.3
*DENSITY
  7.80000000E+03
*MATERIAL,NAME=MAT313
*ELASTIC
  2.00000000E+11, 0.3
*DENSITY
  7.80000000E+03
*MATERIAL,NAME=MAT314
*ELASTIC
  2.00000000E+11, 0.3
*DENSITY
  7.80000000E+03
*MATERIAL,NAME=MAT315
*ELASTIC
  2.00000000E+11, 0.3
*DENSITY
  7.80000000E+03
*MATERIAL,NAME=MAT316
*ELASTIC
  2.00000000E+11, 0.3
*DENSITY
  7.80000000E+03
*MATERIAL,NAME=MAT317
*ELASTIC
  2.00000000E+11, 0.3
*DENSITY
  7.80000000E+03
*MATERIAL,NAME=MAT318
*ELASTIC
  2.00000000E+11, 0.3
*DENSITY
  7.80000000E+03
*MATERIAL,NAME=MAT319
*ELASTIC
  2.00000000E+11, 0.3
*DENSITY
  7.80000000E+03
*MATERIAL,NAME=MAT320
*ELASTIC
  2.00000000E+11, 0.3
*DENSITY
  7.80000000E+03
*MATERIAL,NAME=MAT321
*ELASTIC
  2.00000000E+11, 0.3
*DENSITY
  7.80000000E+03
*MATERIAL,NAME=MAT322
*ELASTIC
  2.00000000E+11, 0.3
*DENSITY
  7.80000000E+03
*MATERIAL,NAME=MAT323
*ELASTIC
  2.00000000E+11, 0.3
*DENSITY
  7.80000000E+03
*MATERIAL,NAME=MAT324
*ELASTIC
  2.00000000E+11, 0.3
*DENSITY
  7.80000000E+03
*MATERIAL,NAME=MAT325
*ELASTIC
  2.00000000E+11, 0.3
*DENSITY
  7.80000000E+03
*MATERIAL,NAME=MAT326
*ELASTIC
  2.00000000E+11, 0.3
*DENSITY
  7.80000000E+03
*MATERIAL,NAME=MAT327
*ELASTIC
  2.00000000E+11, 0.3
*DENSITY
  7.80000000E+03
*MATERIAL,NAME=MAT328
*ELASTIC
  2.00000000E+11, 0.3
*DENSITY
  7.80000000E+03
*MATERIAL,NAME=MAT329
*ELASTIC
  2.00000000E+11, 0.3
*DENSITY
  7.80000000E+03
*MATERIAL,NAME=MAT330
*ELASTIC
  2.00000000E+11, 0.3
*DENSITY
  7.80000000E+03
*MATERIAL,NAME=MAT331
*ELASTIC
  2.00000000E+11, 0.3
*DENSITY
  7.80000000E+03
*MATERIAL,NAME=MAT332
*ELASTIC
  2.00000000E+11, 0.3
*DENSITY
  7.80000000E+03
*MATERIAL,NAME=MAT333
*ELASTIC
  2.00000000E+11, 0.3
*DENSITY
  7.80000000E+03
*MATERIAL,NAME=MAT334
*ELASTIC
  2.00000000E+11, 0.3
*DENSITY
  7.80000000E+03
*MATERIAL,NAME=MAT335
*ELASTIC
  2.00000000E+11, 0.3
*DENSITY
  7.80000000E+03
*MATERIAL,NAME=MAT336
*ELASTIC
  2.00000000E+11, 0.3
*DENSITY
  7.80000000E+03
*MATERIAL,NAME=MAT337
*ELASTIC
  2.00000000E+11, 0.3
*DENSITY
  7.80000000E+03
*MATERIAL,NAME=MAT338
*ELASTIC
  2.00000000E+11, 0.3
*DENSITY
  7.80000000E+03
*MATERIAL,NAME=MAT339
*ELASTIC
  2.00000000E+11, 0.3
*DENSITY
  7.80000000E+03
*MATERIAL,NAME=MAT340
*ELASTIC
  2.00000000E+11, 0.3
*DENSITY
  7.80000000E+03
*MATERIAL,NAME=MAT341
*ELASTIC
  2.00000000E+11, 0.3
*DENSITY
  7.80000000E+03
*MATERIAL,NAME=MAT342
*ELASTIC
  2.00000000E+11, 0.3
*DENSITY
  7.80000000E+03
*MATERIAL,NAME=MAT343
*ELASTIC
  2.00000000E+11, 0.3
*DENSITY
  7.80000000E+03
*MATERIAL,NAME=MAT344
*ELASTIC
  2.00000000E+11, 0.3
*DENSITY
  7.80000000E+03
*MATERIAL,NAME=MAT345
*ELASTIC
  2.00000000E+11, 0.3
*DENSITY
  7.80000000E+03
*MATERIAL,NAME=MAT346
*ELASTIC
  2.00000000E+11, 0.3
*DENSITY
  7.80000000E+03
*MATERIAL,NAME=MAT347
*ELASTIC
  2.00000000E+11, 0.3
*DENSITY
  7.80000000E+03
*MATERIAL,NAME=MAT348
*ELASTIC
  2.00000000E+11, 0.3
*DENSITY
  7.80000000E+03
*MATERIAL,NAME=MAT349
*ELASTIC
  2.00000000E+11, 0.3
*DENSITY
  7.80000000E+03
*MATERIAL,NAME=MAT350
*ELASTIC
  2.00000000E+11, 0.3
*DENSITY
  7.80000000E+03
*MATERIAL,NAME=MAT351
*ELASTIC
  2.00000000E+11, 0.3
*DENSITY
  7.80000000E+03
*MATERIAL,NAME=MAT352
*ELASTIC
  2.00000000E+11, 0.3
*DENSITY
  7.80000000E+03
*MATERIAL,NAME=MAT353
*ELASTIC
  2.00000000E+11, 0.3
*DENSITY
  7.80000000E+03
*MATERIAL,NAME=MAT354
*ELASTIC
  2.00000000E+11, 0.3
*DENSITY
  7.80000000E+03
*MATERIAL,NAME=MAT355
*ELASTIC
  2.00000000E+11, 0.3
*DENSITY
  7.80000000E+03
*MATERIAL,NAME=MAT356
*ELASTIC
  2.00000000E+11, 0.3
*DENSITY
  7.80000000E+03
*MATERIAL,NAME=MAT357
*ELASTIC
  2.00000000E+11, 0.3
*DENSITY
  7.80000000E+03
*MATERIAL,NAME=MAT358
*ELASTIC
  2.00000000E+11, 0.3
*DENSITY
  7.80000000E+03
*MATERIAL,NAME=MAT359
*ELASTIC
  2.00000000E+11, 0.3
*DENSITY
  7.80000000E+03
*MATERIAL,NAME=MAT360
*ELASTIC
  2.00000000E+11, 0.3
*DENSITY
  7.80000000E+03
*MATERIAL,NAME=MAT361
*ELASTIC
  2.00000000E+11, 0.3
*DENSITY
  7.80000000E+03
*MATERIAL,NAME=MAT362
*ELASTIC
  2.00000000E+11, 0.3
*DENSITY
  7.80000000E+03
*MATERIAL,NAME=MAT363
*ELASTIC
  2.00000000E+11, 0.3
*DENSITY
  7.80000000E+03
*MATERIAL,NAME=MAT364
*ELASTIC
  2.00000000E+11, 0.3
*DENSITY
  7.80000000E+03
*MATERIAL,NAME=MAT365
*ELASTIC
  2.00000000E+11, 0.3
*DENSITY
  7.80000000E+03
*MATERIAL,NAME=MAT366
*ELASTIC
  2.00000000E+11, 0.3
*DENSITY
  7.80000000E+03
*MATERIAL,NAME=MAT367
*ELASTIC
  2.00000000E+11, 0.3
*DENSITY
  7.80000000E+03
*MATERIAL,NAME=MAT368
*ELASTIC
  2.00000000E+11, 0.3
*DENSITY
  7.80000000E+03
*MATERIAL,NAME=MAT369
*ELASTIC
  2.00000000E+11, 0.3
*DENSITY
  7.80000000E+03
*MATERIAL,NAME=MAT370
*ELASTIC
  2.00000000E+11, 0.3
*DENSITY
  7.80000000E+03
*MATERIAL,NAME=MAT371
*ELASTIC
  2.00000000E+11, 0.3
*DENSITY
  7.80000000E+03
*MATERIAL,NAME=MAT372
*ELASTIC
  2.00000000E+11, 0.3
*DENSITY
  7.80000000E+03
*MATERIAL,NAME=MAT373
*ELASTIC
  2.00000000E+11, 0.3
*DENSITY
  7.80000000E+03
*MATERIAL,NAME=MAT374
*ELASTIC
  2.00000000E+11, 0.3
*DENSITY
  7.80000000E+03
*MATERIAL,NAME=MAT375
*ELASTIC
  2.00000000E+11, 0.3
*DENSITY
  7.80000000E+03
*MATERIAL,NAME=MAT376
*ELASTIC
  2.00000000E+11, 0.3
*DENSITY
  7.80000000E+03
*MATERIAL,NAME=MAT377
*ELASTIC
  2.00000000E+11, 0.3
*DENSITY
  7.80000000E+03
*MATERIAL,NAME=MAT378
*ELASTIC
  2.00000000E+11, 0.3
*DENSITY
  7.80000000E+03
*MATERIAL,NAME=MAT379
*ELASTIC
  2.00000000E+11, 0.3
*DENSITY
  7.80000000E+03
*MATERIAL,NAME=MAT380
*ELASTIC
  2.00000000E+11, 0.3
*DENSITY
  7.80000000E+03
*MATERIAL,NAME=MAT381
*ELASTIC
  2.00000000E+11, 0.3
*DENSITY
  7.80000000E+03
*MATERIAL,NAME=MAT382
*ELASTIC
  2.00000000E+11, 0.3
*DENSITY
  7.80000000E+03
*MATERIAL,NAME=MAT383
*ELASTIC
  2.00000000E+11, 0.3
*DENSITY
  7.80000000E+03
*MATERIAL,NAME=MAT384
*ELASTIC
  2.00000000E+11, 0.3
*DENSITY
  7.80000000E+03
*MATERIAL,NAME=MAT385
*ELASTIC
  2.00000000E+11, 0.3
*DENSITY
  7.80000000E+03
*MATERIAL,NAME=MAT386
*ELASTIC
  2.00000000E+11, 0.3
*DENSITY
  7.80000000E+03
*MATERIAL,NAME=MAT387
*ELASTIC
  2.00000000E+11, 0.3
*DENSITY
  7.80000000E+03
*MATERIAL,NAME=MAT388
*ELASTIC
  2.00000000E+11, 0.3
*DENSITY
  7.80000000E+03
*MATERIAL,NAME=MAT389
*ELASTIC
  2.00000000E+11, 0.3
*DENSITY
  7.80000000E+03
*MATERIAL,NAME=MAT390
*ELASTIC
  2.00000000E+11, 0.3
*DENSITY
  7.80000000E+03
*MATERIAL,NAME=MAT391
*ELASTIC
  2.00000000E+11, 0.3
*DENSITY
  7.80000000E+03
*MATERIAL,NAME=MAT392
*ELASTIC
  2.00000000E+11, 0.3
*DENSITY
  7.80000000E+03
*MATERIAL,NAME=MAT393
*ELASTIC
  2.00000000E+11, 0.3
*DENSITY
  7.80000000E+03
*MATERIAL,NAME=MAT394
*ELASTIC
  2.00000000E+11, 0.3
*DENSITY
  7.80000000E+03
*MATERIAL,NAME=MAT395
*ELASTIC
  2.00000000E+11, 0.3
*DENSITY
  7.80000000E+03
*MATERIAL,NAME=MAT396
*ELASTIC
  2.00000000E+11, 0.3
*DENSITY
  7.80000000E+03
*MATERIAL,NAME=MAT397
*ELASTIC
  2.00000000E+11, 0.3
*DENSITY
  7.80000000E+03
*MATERIAL,NAME=MAT398
*ELASTIC
  2.00000000E+11, 0.3
*DENSITY
  7.80000000E+03
*MATERIAL,NAME=MAT399
*ELASTIC
  2.00000000E+11, 0.3
*DENSITY
  7.80000000E+03
*MATERIAL,NAME=MAT400
*ELASTIC
  2.00000000E+11, 0.3
*DENSITY
  7.80000000E+03
*MATERIAL,NAME=MAT401
*ELASTIC
  2.00000000E+11, 0.3
*DENSITY
  7.80000000E+03
*MATERIAL,NAME=MAT402
*ELASTIC
  2.00000000E+11, 0.3
*DENSITY
  7.80000000E+03
*MATERIAL,NAME=MAT403
*ELASTIC
  2.00000000E+11, 0.3
*DENSITY
  7.80000000E+03
*MATERIAL,NAME=MAT404
*ELASTIC
  2.00000000E+11, 0.3
*DENSITY
  7.80000000E+03
*MATERIAL,NAME=MAT405
*ELASTIC
  2.00000000E+11, 0.3
*DENSITY
  7.80000000E+03
*MATERIAL,NAME=MAT406
*ELASTIC
  2.00000000E+11, 0.3
*DENSITY
  7.80000000E+03
*MATERIAL,NAME=MAT407
*ELASTIC
  2.00000000E+11, 0.3
*DENSITY
  7.80000000E+03
*MATERIAL,NAME=MAT408
*ELASTIC
  2.00000000E+11, 0.3
*DENSITY
  7.80000000E+03
*MATERIAL,NAME=MAT409
*ELASTIC
  2.00000000E+11, 0.3
*DENSITY
  7.80000000E+03
*MATERIAL,NAME=MAT410
*ELASTIC
  2.00000000E+11, 0.3
*DENSITY
  7.80000000E+03
*MATERIAL,NAME=MAT411
*ELASTIC
  2.00000000E+11, 0.3
*DENSITY
  7.80000000E+03
*MATERIAL,NAME=MAT412
*ELASTIC
  2.00000000E+11, 0.3
*DENSITY
  7.80000000E+03
*MATERIAL,NAME=MAT413
*ELASTIC
  2.00000000E+11, 0.3
*DENSITY
  7.80000000E+03
*MATERIAL,NAME=MAT414
*ELASTIC
  2.00000000E+11, 0.3
*DENSITY
  7.80000000E+03
*MATERIAL,NAME=MAT415
*ELASTIC
  2.00000000E+11, 0.3
*DENSITY
  7.80000000E+03
*MATERIAL,NAME=MAT416
*ELASTIC
  2.00000000E+11, 0.3
*DENSITY
  7.80000000E+03
*MATERIAL,NAME=MAT417
*ELASTIC
  2.00000000E+11, 0.3
*DENSITY
  7.80000000E+03
*MATERIAL,NAME=MAT418
*ELASTIC
  2.00000000E+11, 0.3
*DENSITY
  7.80000000E+03
*MATERIAL,NAME=MAT419
*ELASTIC
  2.00000000E+11, 0.3
*DENSITY
  7.80000000E+03
*MATERIAL,NAME=MAT420
*ELASTIC
  2.00000000E+11, 0.3
*DENSITY
  7.80000000E+03
*MATERIAL,NAME=MAT421
*ELASTIC
  2.00000000E+11, 0.3
*DENSITY
  7.80000000E+03
*MATERIAL,NAME=MAT422
*ELASTIC
  2.00000000E+11, 0.3
*DENSITY
  7.80000000E+03
*MATERIAL,NAME=MAT423
*ELASTIC
  2.00000000E+11, 0.3
*DENSITY
  7.80000000E+03
*MATERIAL,NAME=MAT424
*ELASTIC
  2.00000000E+11, 0.3
*DENSITY
  7.80000000E+03
*MATERIAL,NAME=MAT425
*ELASTIC
  2.00000000E+11, 0.3
*DENSITY
  7.80000000E+03
*MATERIAL,NAME=MAT426
*ELASTIC
  2.00000000E+11, 0.3
*DENSITY
  7.80000000E+03
*MATERIAL,NAME=MAT427
*ELASTIC
  2.00000000E+11, 0.3
*DENSITY
  7.80000000E+03
*MATERIAL,NAME=MAT428
*ELASTIC
  2.00000000E+11, 0.3
*DENSITY
  7.80000000E+03
*MATERIAL,NAME=MAT429
*ELASTIC
  2.00000000E+11, 0.3
*DENSITY
  7.80000000E+03
*MATERIAL,NAME=MAT430
*ELASTIC
  2.00000000E+11, 0.3
*DENSITY
  7.80000000E+03
*MATERIAL,NAME=MAT431
*ELASTIC
  2.00000000E+11, 0.3
*DENSITY
  7.80000000E+03
*MATERIAL,NAME=MAT432
*ELASTIC
  2.00000000E+11, 0.3
*DENSITY
  7.80000000E+03
*MATERIAL,NAME=MAT433
*ELASTIC
  2.00000000E+11, 0.3
*DENSITY
  7.80000000E+03
*MATERIAL,NAME=MAT434
*ELASTIC
  2.00000000E+11, 0.3
*DENSITY
  7.80000000E+03
*MATERIAL,NAME=MAT435
*ELASTIC
  2.00000000E+11, 0.3
*DENSITY
  7.80000000E+03
*MATERIAL,NAME=MAT436
*ELASTIC
  2.00000000E+11, 0.3
*DENSITY
  7.80000000E+03
*MATERIAL,NAME=MAT437
*ELASTIC
  2.00000000E+11, 0.3
*DENSITY
  7.80000000E+03
*MATERIAL,NAME=MAT438
*ELASTIC
  2.00000000E+11, 0.3
*DENSITY
  7.80000000E+03
*MATERIAL,NAME=MAT439
*ELASTIC
  2.00000000E+11, 0.3
*DENSITY
  7.80000000E+03
*MATERIAL,NAME=MAT440
*ELASTIC
  2.00000000E+11, 0.3
*DENSITY
  7.80000000E+03
*MATERIAL,NAME=MAT441
*ELASTIC
  2.00000000E+11, 0.3
*DENSITY
  7.80000000E+03
*MATERIAL,NAME=MAT442
*ELASTIC
  2.00000000E+11, 0.3
*DENSITY
  7.80000000E+03
*MATERIAL,NAME=MAT443
*ELASTIC
  2.00000000E+11, 0.3
*DENSITY
  7.80000000E+03
*MATERIAL,NAME=MAT444
*ELASTIC
  2.00000000E+11, 0.3
*DENSITY
  7.80000000E+03
*MATERIAL,NAME=MAT445
*ELASTIC
  2.00000000E+11, 0.3
*DENSITY
  7.80000000E+03
*MATERIAL,NAME=MAT446
*ELASTIC
  2.00000000E+11, 0.3
*DENSITY
  7.80000000E+03
*MATERIAL,NAME=MAT447
*ELASTIC
  2.00000000E+11, 0.3
*DENSITY
  7.80000000E+03
*MATERIAL,NAME=MAT448
*ELASTIC
  2.00000000E+11, 0.3
*DENSITY
  7.80000000E+03
*MATERIAL,NAME=MAT449
*ELASTIC
  2.00000000E+11, 0.3
*DENSITY
  7.80000000E+03
*MATERIAL,NAME=MAT450
*ELASTIC
  2.00000000E+11, 0.3
*DENSITY
  7.80000000E+03
*MATERIAL,NAME=MAT451
*ELASTIC
  2.00000000E+11, 0.3
*DENSITY
  7.80000000E+03
*MATERIAL,NAME=MAT452
*ELASTIC
  2.00000000E+11, 0.3
*DENSITY
  7.80000000E+03
*MATERIAL,NAME=MAT453
*ELASTIC
  2.00000000E+11, 0.3
*DENSITY
  7.80000000E+03
*MATERIAL,NAME=MAT454
*ELASTIC
  2.00000000E+11, 0.3
*DENSITY
  7.80000000E+03
*MATERIAL,NAME=MAT455
*ELASTIC
  2.00000000E+11, 0.3
*DENSITY
  7.80000000E+03
*MATERIAL,NAME=MAT456
*ELASTIC
  2.00000000E+11, 0.3
*DENSITY
  7.80000000E+03
*MATERIAL,NAME=MAT457
*ELASTIC
  2.00000000E+11, 0.3
*DENSITY
  7.80000000E+03
*MATERIAL,NAME=MAT458
*ELASTIC
  2.00000000E+11, 0.3
*DENSITY
  7.80000000E+03
*MATERIAL,NAME=MAT459
*ELASTIC
  2.00000000E+11, 0.3
*DENSITY
  7.80000000E+03
*MATERIAL,NAME=MAT460
*ELASTIC
  2.00000000E+11, 0.3
*DENSITY
  7.80000000E+03
*MATERIAL,NAME=MAT461
*ELASTIC
  2.00000000E+11, 0.3
*DENSITY
  7.80000000E+03
*MATERIAL,NAME=MAT462
*ELASTIC
  2.00000000E+11, 0.3
*DENSITY
  7.80000000E+03
*MATERIAL,NAME=MAT463
*ELASTIC
  2.00000000E+11, 0.3
*DENSITY
  7.80000000E+03
*MATERIAL,NAME=MAT464
*ELASTIC
  2.00000000E+11, 0.3
*DENSITY
  7.80000000E+03
*SHELL SECTION,ELSET=E0,MATERIAL=MAT0
  1.00000000E-02
*SHELL SECTION,ELSET=E1,MATERIAL=MAT1
  1.00000000E-02
*SHELL SECTION,ELSET=E2,MATERIAL=MAT2
  1.00000000E-02
*SHELL SECTION,ELSET=E3,MATERIAL=MAT3
  1.00000000E-02
*SHELL SECTION,ELSET=E4,MATERIAL=MAT4
  1.00000000E-02
*SHELL SECTION,ELSET=E5,MATERIAL=MAT5
  1.00000000E-02
*SHELL SECTION,ELSET=E6,MATERIAL=MAT6
  1.00000000E-02
*SHELL SECTION,ELSET=E7,MATERIAL=MAT7
  1.00000000E-02
*SHELL SECTION,ELSET=E8,MATERIAL=MAT8
  1.00000000E-02
*SHELL SECTION,ELSET=E9,MATERIAL=MAT9
  1.00000000E-02
*SHELL SECTION,ELSET=E10,MATERIAL=MAT10
  1.00000000E-02
*SHELL SECTION,ELSET=E11,MATERIAL=MAT11
  1.00000000E-02
*SHELL SECTION,ELSET=E12,MATERIAL=MAT12
  1.00000000E-02
*SHELL SECTION,ELSET=E13,MATERIAL=MAT13
  1.00000000E-02
*SHELL SECTION,ELSET=E14,MATERIAL=MAT14
  1.00000000E-02
*SHELL SECTION,ELSET=E15,MATERIAL=MAT15
  1.00000000E-02
*SHELL SECTION,ELSET=E16,MATERIAL=MAT16
  1.00000000E-02
*SHELL SECTION,ELSET=E17,MATERIAL=MAT17
  1.00000000E-02
*SHELL SECTION,ELSET=E18,MATERIAL=MAT18
  1.00000000E-02
*SHELL SECTION,ELSET=E19,MATERIAL=MAT19
** ... 233 like lines cut
*BEAM SECTION,ELSET=E136,MATERIAL=MAT136,SECTION=BOX
  3.00000000E-01,   2.00000000E-01,  1.20000000E-02,   1.20000000E-02,  1.20000000E-02,   1.20000000E-02
  0.00000000E+00,   0.00000000E+00,   1.00000000E+00
*BEAM SECTION,ELSET=E137,MATERIAL=MAT137,SECTION=BOX
  3.00000000E-01,   2.00000000E-01,  1.20000000E-02,   1.20000000E-02,  1.20000000E-02,   1.20000000E-02
  0.00000000E+00,   0.00000000E+00,   1.00000000E+00
*BEAM SECTION,ELSET=E138,MATERIAL=MAT138,SECTION=BOX
  3.00000000E-01,   2.00000000E-01,  1.20000000E-02,   1.20000000E-02,  1.20000000E-02,   1.20000000E-02
  0.00000000E+00,   0.00000000E+00,   1.00000000E+00
*BEAM SECTION,ELSET=E139,MATERIAL=MAT139,SECTION=BOX
  3.00000000E-01,   2.00000000E-01,  1.20000000E-02,   1.20000000E-02,  1.20000000E-02,   1.20000000E-02
  0.00000000E+00,   0.00000000E+00,   1.00000000E+00
*BEAM SECTION,ELSET=E140,MATERIAL=MAT140,SECTION=BOX
  3.00000000E-01,   2.00000000E-01,  1.20000000E-02,   1.20000000E-02,  1.20000000E-02,   1.20000000E-02
  0.00000000E+00,   0.00000000E+00,   1.00000000E+00
*BEAM SECTION,ELSET=E141,MATERIAL=MAT141,SECTION=BOX
  3.00000000E-01,   2.00000000E-01,  1.20000000E-02,   1.20000000E-02,  1.20000000E-02,   1.20000000E-02
  0.00000000E+00,   0.00000000E+00,   1.00000000E+00
*BEAM SECTION,ELSET=E142,MATERIAL=MAT142,SECTION=BOX
  3.00000000E-01,   2.00000000E-01,  1.20000000E-02,   1.20000000E-02,  1.20000000E-02,   1.20000000E-02
  0.00000000E+00,   0.00000000E+00,   1.00000000E+00
*BEAM SECTION,ELSET=E143,MATERIAL=MAT143,SECTION=BOX
  3.00000000E-01,   2.00000000E-01,  1.20000000E-02,   1.20000000E-02,  1.20000000E-02,   1.20000000E-02
  0.00000000E+00,   0.00000000E+00,   1.00000000E+00
*BEAM SECTION,ELSET=E144,MATERIAL=MAT144,SECTION=BOX
  3.00000000E-01,   2.00000000E-01,  1.20000000E-02,   1.20000000E-02,  1.20000000E-02,   1.20000000E-02
  0.00000000E+00,   0.00000000E+00,   1.00000000E+00
*BEAM SECTION,ELSET=E145,MATERIAL=MAT145,SECTION=BOX
  3.00000000E-01,   2.00000000E-01,  1.20000000E-02,   1.20000000E-02,  1.20000000E-02,   1.20000000E-02
  0.00000000E+00,   0.00000000E+00,   1.00000000E+00
*BEAM SECTION,ELSET=E146,MATERIAL=MAT146,SECTION=BOX
  3.00000000E-01,   2.00000000E-01,  1.20000000E-02,   1.20000000E-02,  1.20000000E-02,   1.20000000E-02
  0.00000000E+00,   0.00000000E+00,   1.00000000E+00
*BEAM SECTION,ELSET=E147,MATERIAL=MAT147,SECTION=BOX
  3.00000000E-01,   2.00000000E-01,  1.20000000E-02,   1.20000000E-02,  1.20000000E-02,   1.20000000E-02
  0.00000000E+00,   0.00000000E+00,   1.00000000E+00
*BEAM SECTION,ELSET=E148,MATERIAL=MAT148,SECTION=BOX
  3.00000000E-01,   2.00000000E-01,  1.20000000E-02,   1.20000000E-02,  1.20000000E-02,   1.20000000E-02
  0.00000000E+00,   0.00000000E+00,   1.00000000E+00
*BEAM SECTION,ELSET=E149,MATERIAL=MAT149,SECTION=BOX
  3.00000000E-01,   2.00000000E-01,  1.20000000E-02,   1.20000000E-02,  1.20000000E-02,   1.20000000E-02
  0.00000000E+00,   0.00000000E+00,   1.00000000E+00
*BEAM SECTION,ELSET=E150,MATERIAL=MAT150,SECTION=BOX
  3.00000000E-01,   2.00000000E-01,  1.20000000E-02,   1.20000000E-02,  1.20000000E-02,   1.20000000E-02
  0.00000000E+00,   0.00000000E+00,   1.00000000E+00
*BEAM SECTION,ELSET=E151,MATERIAL=MAT151,SECTION=BOX
  3.00000000E-01,   2.00000000E-01,  1.20000000E-02,   1.20000000E-02,  1.20000000E-02,   1.20000000E-02
  0.00000000E+00,   0.00000000E+00,   1.00000000E+00
*BEAM SECTION,ELSET=E152,MATERIAL=MAT152,SECTION=BOX
  3.00000000E-01,   2.00000000E-01,  1.20000000E-02,   1.20000000E-02,  1.20000000E-02,   1.20000000E-02
  0.00000000E+00,   0.00000000E+00,   1.00000000E+00
*BEAM SECTION,ELSET=E153,MATERIAL=MAT153,SECTION=BOX
  3.00000000E-01,   2.00000000E-01,  1.20000000E-02,   1.20000000E-02,  1.20000000E-02,   1.20000000E-02
  0.00000000E+00,   0.00000000E+00,   1.00000000E+00
*BEAM SECTION,ELSET=E154,MATERIAL=MAT154,SECTION=BOX
  3.00000000E-01,   2.00000000E-01,  1.20000000E-02,   1.20000000E-02,  1.20000000E-02,   1.20000000E-02
  0.00000000E+00,   0.00000000E+00,   1.00000000E+00
*BEAM SECTION,ELSET=E155,MATERIAL=MAT155,SECTION=BOX
  3.00000000E-01,   2.00000000E-01,  1.20000000E-02,   1.20000000E-02,  1.20000000E-02,   1.20000000E-02
  0.00000000E+00,   0.00000000E+00,   1.00000000E+00
** ... 927 like lines cut
*STEP
*STATIC
*DLOAD
E0, P,  -1.00000000E+04
*DLOAD
E1, P,  -1.00000000E+04
*DLOAD
E2, P,  -1.00000000E+04
*DLOAD
E3, P,  -1.00000000E+04
*DLOAD
E4, P,  -1.00000000E+04
*DLOAD
E5, P,  -1.00000000E+04
*DLOAD
E6, P,  -1.00000000E+04
*DLOAD
E7, P,  -1.00000000E+04
*DLOAD
E8, P,  -1.00000000E+04
*DLOAD
E9, P,  -1.00000000E+04
*DLOAD
E10, P,  -1.00000000E+04
*DLOAD
E11, P,  -1.00000000E+04
*DLOAD
E12, P,  -1.00000000E+04
*DLOAD
E13, P,  -1.00000000E+04
*DLOAD
E14, P,  -1.00000000E+04
*DLOAD
E15, P,  -1.00000000E+04
*DLOAD
E16, P,  -1.00000000E+04
*DLOAD
E17, P,  -1.00000000E+04
*DLOAD
E18, P,  -1.00000000E+04
*DLOAD
E19, P,  -1.00000000E+04
*DLOAD
E20, P,  -1.00000000E+04
*DLOAD
E21, P,  -1.00000000E+04
*DLOAD
E22, P,  -1.00000000E+04
*DLOAD
E23, P,  -1.00000000E+04
*DLOAD
E24, P,  -1.00000000E+04
*DLOAD
E25, P,  -1.00000000E+04
*DLOAD
E26, P,  -1.00000000E+04
*DLOAD
E27, P,  -1.00000000E+04
*DLOAD
E28, P,  -1.00000000E+04
*DLOAD
E29, P,  -1.00000000E+04
*DLOAD
E30, P,  -1.00000000E+04
*DLOAD
E31, P,  -1.00000000E+04
*DLOAD
E32, P,  -1.00000000E+04
*DLOAD
E33, P,  -1.00000000E+04
*DLOAD
E34, P,  -1.00000000E+04
*DLOAD
E35, P,  -1.00000000E+04
*DLOAD
E36, P,  -1.00000000E+04
*DLOAD
E37, P,  -1.00000000E+04
*DLOAD
E38, P,  -1.00000000E+04
*DLOAD
E39, P,  -1.00000000E+04
*DLOAD
E40, P,  -1.00000000E+04
*DLOAD
E41, P,  -1.00000000E+04
*DLOAD
E42, P,  -1.00000000E+04
*DLOAD
E43, P,  -1.00000000E+04
*DLOAD
E44, P,  -1.00000000E+04
*DLOAD
E45, P,  -1.00000000E+04
*DLOAD
E46, P,  -1.00000000E+04
*DLOAD
E47, P,  -1.00000000E+04
*DLOAD
E48, P,  -1.00000000E+04
*DLOAD
E49, P,  -1.00000000E+04
*DLOAD
E50, P,  -1.00000000E+04
*DLOAD
E51, P,  -1.00000000E+04
*DLOAD
E52, P,  -1.00000000E+04
*DLOAD
E53, P,  -1.00000000E+04
*DLOAD
E54, P,  -1.00000000E+04
*DLOAD
E55, P,  -1.00000000E+04
*DLOAD
E56, P,  -1.00000000E+04
*DLOAD
E57, P,  -1.00000000E+04
*DLOAD
E58, P,  -1.00000000E+04
*DLOAD
E59, P,  -1.00000000E+04
*DLOAD
E60, P,  -1.00000000E+04
*DLOAD
E61, P,  -1.00000000E+04
*DLOAD
E62, P,  -1.00000000E+04
*DLOAD
E63, P,  -1.00000000E+04
*DLOAD
E64, P,  -1.00000000E+04
*DLOAD
E65, P,  -1.00000000E+04
*DLOAD
E66, P,  -1.00000000E+04
*DLOAD
E67, P,  -1.00000000E+04
*DLOAD
E68, P,  -1.00000000E+04
*DLOAD
E69, P,  -1.00000000E+04
*DLOAD
E70, P,  -1.00000000E+04
*DLOAD
E71, P,  -1.00000000E+04
*DLOAD
E72, P,  -1.00000000E+04
*DLOAD
E73, P,  -1.00000000E+04
*DLOAD
E74, P,  -1.00000000E+04
*DLOAD
E75, P,  -1.00000000E+04
*DLOAD
E76, P,  -1.00000000E+04
*DLOAD
E77, P,  -1.00000000E+04
*DLOAD
E78, P,  -1.00000000E+04
*DLOAD
E79, P,  -1.00000000E+04
*DLOAD
E80, P,  -1.00000000E+04
*DLOAD
E81, P,  -1.00000000E+04
*DLOAD
E82, P,  -1.00000000E+04
*DLOAD
E83, P,  -1.00000000E+04
*DLOAD
E84, P,  -1.00000000E+04
*DLOAD
E85, P,  -1.00000000E+04
*DLOAD
E86, P,  -1.00000000E+04
*DLOAD
E87, P,  -1.00000000E+04
*DLOAD
E88, P,  -1.00000000E+04
*DLOAD
E89, P,  -1.00000000E+04
*DLOAD
E90, P,  -1.00000000E+04
*DLOAD
E91, P,  -1.00000000E+04
*DLOAD
E92, P,  -1.00000000E+04
*DLOAD
E93, P,  -1.00000000E+04
*DLOAD
E94, P,  -1.00000000E+04
*DLOAD
E95, P,  -1.00000000E+04
*DLOAD
E96, P,  -1.00000000E+04
*DLOAD
E97, P,  -1.00000000E+04
*DLOAD
E98, P,  -1.00000000E+04
*DLOAD
E99, P,  -1.00000000E+04
*DLOAD
E100, P,  -1.00000000E+04
*DLOAD
E101, P,  -1.00000000E+04
*DLOAD
E102, P,  -1.00000000E+04
*DLOAD
E103, P,  -1.00000000E+04
*DLOAD
E104, P,  -1.00000000E+04
*DLOAD
E105, P,  -1.00000000E+04
*DLOAD
E106, P,  -1.00000000E+04
*DLOAD
E107, P,  -1.00000000E+04
*DLOAD
E108, P,  -1.00000000E+04
*DLOAD
E109, P,  -1.00000000E+04
*DLOAD
E110, P,  -1.00000000E+04
*DLOAD
E111, P,  -1.00000000E+04
*DLOAD
E112, P,  -1.00000000E+04
*DLOAD
E113, P,  -1.00000000E+04
*DLOAD
E114, P,  -1.00000000E+04
*DLOAD
E115, P,  -1.00000000E+04
*DLOAD
E116, P,  -1.00000000E+04
*DLOAD
E117, P,  -1.00000000E+04
*DLOAD
E118, P,  -1.00000000E+04
*DLOAD
E119, P,  -1.00000000E+04
*DLOAD
E120, P,  -1.00000000E+04
*DLOAD
E121, P,  -1.00000000E+04
*DLOAD
E122, P,  -1.00000000E+04
*DLOAD
E123, P,  -1.00000000E+04
*DLOAD
E124, P,  -1.00000000E+04
*DLOAD
E125, P,  -1.00000000E+04
*DLOAD
E126, P,  -1.00000000E+04
*DLOAD
E127, P,  -1.00000000E+04
*DLOAD
E128, P,  -1.00000000E+04
*DLOAD
E129, P,  -1.00000000E+04
*DLOAD
E130, P,  -1.00000000E+04
*DLOAD
E131, P,  -1.00000000E+04
*DLOAD
E132, P,  -1.00000000E+04
*DLOAD
E133, P,  -1.00000000E+04
*DLOAD
E134, P,  -1.00000000E+04
*DLOAD
E135, P,  -1.00000000E+04
*DLOAD
EALL, GRAV,   9.81000000E+01,   0.00000000E+00,   0.00000000E+00,  -1.00000000E+00
*NODE PRINT,NSET=NAll
U
*NODE FILE,OUTPUT=3D
U
*END STEP
